<?xml version="1.0" encoding="UTF-8"?>


<net version="1.9" junctionCornerDetail="5" limitTurnSpeed="5.50" xmlns:xsi="http://www.w3.org/2001/XMLSchema-instance" xsi:noNamespaceSchemaLocation="http://sumo.dlr.de/xsd/net_file.xsd">

    <location netOffset="0.00,0.00" convBoundary="0.00,0.00,800.00,0.00" origBoundary="-10000000000.00,-10000000000.00,10000000000.00,10000000000.00" projParameter="!"/>

    <edge id="E0" from="0" to="1" priority="1">
        <lane id="E0_0" index="0" speed="50.00" length="800.00" shape="0.00,-8.00 800.00,-8.00"/>
        <lane id="E0_1" index="1" speed="50.00" length="800.00" shape="0.00,-4.80 800.00,-4.80"/>
        <lane id="E0_2" index="2" speed="50.00" length="800.00" shape="0.00,-1.60 800.00,-1.60"/>
    </edge>

    <junction id="0" type="dead_end" x="0.00" y="0.00" incLanes="" intLanes="" shape="0.00,0.00 0.00,-9.60"/>
    <junction id="1" type="dead_end" x="800.00" y="0.00" incLanes="E0_0 E0_1 E0_2" intLanes="" shape="800.00,-9.60 800.00,0.00"/>

</net>
