<?xml version="1.0" encoding="UTF-8"?>


<net version="1.9" junctionCornerDetail="5" limitTurnSpeed="5.50" xmlns:xsi="http://www.w3.org/2001/XMLSchema-instance" xsi:noNamespaceSchemaLocation="http://sumo.dlr.de/xsd/net_file.xsd">

    <location netOffset="0.00,0.00" convBoundary="-100.14,-100.06,500.06,2.75" origBoundary="-10000000000.00,-10000000000.00,10000000000.00,10000000000.00" projParameter="!"/>

    <edge id=":J0_0" function="internal">
        <lane id=":J0_0_0" index="0" speed="3.90" length="2.58" shape="-96.80,-98.39 -97.50,-98.29 -98.00,-97.99 -98.31,-97.50 -98.41,-96.80"/>
    </edge>
    <edge id=":J0_1" function="internal">
        <lane id=":J0_1_0" index="0" speed="6.08" length="7.74" shape="-101.61,-96.80 -101.30,-98.90 -100.40,-100.40 -98.90,-101.30 -96.79,-101.59"/>
    </edge>
    <edge id=":J1_0" function="internal">
        <lane id=":J1_0_0" index="0" speed="3.90" length="2.58" shape="498.40,-96.79 498.30,-97.49 498.00,-97.99 497.50,-98.29 496.80,-98.39"/>
    </edge>
    <edge id=":J1_1" function="internal">
        <lane id=":J1_1_0" index="0" speed="6.08" length="7.75" shape="496.79,-101.59 498.89,-101.30 500.40,-100.40 501.30,-98.90 501.60,-96.79"/>
    </edge>
    <edge id=":J10_0" function="internal">
        <lane id=":J10_0_0" index="0" speed="13.89" length="0.10" shape="163.20,-98.22 163.20,-98.22">
            <neigh lane=":J10_1_0"/>
        </lane>
    </edge>
    <edge id=":J10_1" function="internal">
        <lane id=":J10_1_0" index="0" speed="13.89" length="0.10" shape="163.20,-101.42 163.20,-101.42">
            <neigh lane=":J10_0_0"/>
        </lane>
    </edge>
    <edge id=":J11_0" function="internal">
        <lane id=":J11_0_0" index="0" speed="13.89" length="0.30" shape="232.66,-98.22 232.35,-98.22">
            <neigh lane=":J11_1_0"/>
        </lane>
    </edge>
    <edge id=":J11_1" function="internal">
        <lane id=":J11_1_0" index="0" speed="13.89" length="0.30" shape="232.35,-101.42 232.64,-101.42">
            <neigh lane=":J11_0_0"/>
        </lane>
    </edge>
    <edge id=":J12_0" function="internal">
        <lane id=":J12_0_0" index="0" speed="13.89" length="0.30" shape="296.44,-98.46 296.15,-98.46">
            <neigh lane=":J12_1_0"/>
        </lane>
    </edge>
    <edge id=":J12_1" function="internal">
        <lane id=":J12_1_0" index="0" speed="13.89" length="0.30" shape="296.13,-101.66 296.44,-101.66">
            <neigh lane=":J12_0_0"/>
        </lane>
    </edge>
    <edge id=":J13_0" function="internal">
        <lane id=":J13_0_0" index="0" speed="13.89" length="0.30" shape="356.07,-98.46 355.78,-98.46">
            <neigh lane=":J13_1_0"/>
        </lane>
    </edge>
    <edge id=":J13_1" function="internal">
        <lane id=":J13_1_0" index="0" speed="13.89" length="0.30" shape="355.78,-101.66 356.09,-101.66">
            <neigh lane=":J13_0_0"/>
        </lane>
    </edge>
    <edge id=":J14_0" function="internal">
        <lane id=":J14_0_0" index="0" speed="13.89" length="0.30" shape="417.59,-98.09 417.28,-98.09">
            <neigh lane=":J14_1_0"/>
        </lane>
    </edge>
    <edge id=":J14_1" function="internal">
        <lane id=":J14_1_0" index="0" speed="13.89" length="0.30" shape="417.30,-101.29 417.58,-101.29">
            <neigh lane=":J14_0_0"/>
        </lane>
    </edge>
    <edge id=":J15_0" function="internal">
        <lane id=":J15_0_0" index="0" speed="13.89" length="0.30" shape="498.46,-54.71 498.46,-55.01">
            <neigh lane=":J15_1_0"/>
        </lane>
    </edge>
    <edge id=":J15_1" function="internal">
        <lane id=":J15_1_0" index="0" speed="13.89" length="0.30" shape="501.66,-55.01 501.66,-54.71">
            <neigh lane=":J15_0_0"/>
        </lane>
    </edge>
    <edge id=":J16_0" function="internal">
        <lane id=":J16_0_0" index="0" speed="13.89" length="0.29" shape="426.77,2.11 426.45,2.11">
            <neigh lane=":J16_1_0"/>
        </lane>
    </edge>
    <edge id=":J16_1" function="internal">
        <lane id=":J16_1_0" index="0" speed="13.89" length="0.29" shape="426.48,-1.09 426.74,-1.09">
            <neigh lane=":J16_0_0"/>
        </lane>
    </edge>
    <edge id=":J17_0" function="internal">
        <lane id=":J17_0_0" index="0" speed="13.89" length="0.28" shape="359.50,1.66 359.26,1.66">
            <neigh lane=":J17_1_0"/>
        </lane>
    </edge>
    <edge id=":J17_1" function="internal">
        <lane id=":J17_1_0" index="0" speed="13.89" length="0.28" shape="359.21,-1.54 359.52,-1.54">
            <neigh lane=":J17_0_0"/>
        </lane>
    </edge>
    <edge id=":J18_0" function="internal">
        <lane id=":J18_0_0" index="0" speed="13.89" length="0.29" shape="299.02,2.56 298.74,2.56">
            <neigh lane=":J18_1_0"/>
        </lane>
    </edge>
    <edge id=":J18_1" function="internal">
        <lane id=":J18_1_0" index="0" speed="13.89" length="0.29" shape="298.66,-0.64 298.97,-0.64">
            <neigh lane=":J18_0_0"/>
        </lane>
    </edge>
    <edge id=":J19_0" function="internal">
        <lane id=":J19_0_0" index="0" speed="13.89" length="0.25" shape="229.53,4.35 229.23,4.35">
            <neigh lane=":J19_1_0"/>
        </lane>
    </edge>
    <edge id=":J19_1" function="internal">
        <lane id=":J19_1_0" index="0" speed="13.89" length="0.25" shape="229.25,1.15 229.44,1.15">
            <neigh lane=":J19_0_0"/>
        </lane>
    </edge>
    <edge id=":J2_0" function="internal">
        <lane id=":J2_0_0" index="0" speed="6.08" length="7.70" shape="501.60,-3.17 501.30,-1.09 500.41,0.41 498.92,1.31 496.84,1.62"/>
    </edge>
    <edge id=":J2_1" function="internal">
        <lane id=":J2_1_0" index="0" speed="3.90" length="2.57" shape="496.81,-1.58 497.51,-1.68 498.01,-1.98 498.30,-2.48 498.40,-3.18"/>
    </edge>
    <edge id=":J20_0" function="internal">
        <lane id=":J20_0_0" index="0" speed="13.89" length="0.30" shape="157.33,3.91 157.04,3.91">
            <neigh lane=":J20_1_0"/>
        </lane>
    </edge>
    <edge id=":J20_1" function="internal">
        <lane id=":J20_1_0" index="0" speed="13.89" length="0.30" shape="157.04,0.71 157.35,0.71">
            <neigh lane=":J20_0_0"/>
        </lane>
    </edge>
    <edge id=":J21_0" function="internal">
        <lane id=":J21_0_0" index="0" speed="13.89" length="0.30" shape="92.33,3.91 92.02,3.91">
            <neigh lane=":J21_1_0"/>
        </lane>
    </edge>
    <edge id=":J21_1" function="internal">
        <lane id=":J21_1_0" index="0" speed="13.89" length="0.30" shape="92.04,0.71 92.33,0.71">
            <neigh lane=":J21_0_0"/>
        </lane>
    </edge>
    <edge id=":J22_0" function="internal">
        <lane id=":J22_0_0" index="0" speed="13.89" length="0.28" shape="24.17,3.46 23.93,3.46">
            <neigh lane=":J22_1_0"/>
        </lane>
    </edge>
    <edge id=":J22_1" function="internal">
        <lane id=":J22_1_0" index="0" speed="13.89" length="0.28" shape="23.88,0.26 24.19,0.26">
            <neigh lane=":J22_0_0"/>
        </lane>
    </edge>
    <edge id=":J23_0" function="internal">
        <lane id=":J23_0_0" index="0" speed="13.89" length="0.10" shape="-33.77,4.35 -33.86,4.35">
            <neigh lane=":J23_1_0"/>
        </lane>
    </edge>
    <edge id=":J23_1" function="internal">
        <lane id=":J23_1_0" index="0" speed="13.89" length="0.10" shape="-33.72,1.15 -33.81,1.15">
            <neigh lane=":J23_0_0"/>
        </lane>
    </edge>
    <edge id=":J24_0" function="internal">
        <lane id=":J24_0_0" index="0" speed="13.89" length="0.30" shape="-101.74,-40.58 -101.74,-40.88">
            <neigh lane=":J24_1_0"/>
        </lane>
    </edge>
    <edge id=":J24_1" function="internal">
        <lane id=":J24_1_0" index="0" speed="13.89" length="0.30" shape="-98.54,-40.88 -98.54,-40.59">
            <neigh lane=":J24_0_0"/>
        </lane>
    </edge>
    <edge id=":J3_0" function="internal">
        <lane id=":J3_0_0" index="0" speed="6.08" length="7.49" shape="-97.01,1.73 -99.02,1.36 -100.45,0.44 -101.32,-1.03 -101.61,-3.05"/>
    </edge>
    <edge id=":J3_1" function="internal">
        <lane id=":J3_1_0" index="0" speed="3.91" length="2.50" shape="-98.41,-3.06 -98.31,-2.39 -98.02,-1.90 -97.55,-1.60 -96.88,-1.47"/>
    </edge>
    <edge id=":J7_0" function="internal">
        <lane id=":J7_0_0" index="0" speed="13.89" length="0.30" shape="-32.34,-98.22 -32.64,-98.22">
            <neigh lane=":J7_1_0"/>
        </lane>
    </edge>
    <edge id=":J7_1" function="internal">
        <lane id=":J7_1_0" index="0" speed="13.89" length="0.30" shape="-32.64,-101.42 -32.34,-101.42">
            <neigh lane=":J7_0_0"/>
        </lane>
    </edge>
    <edge id=":J8_0" function="internal">
        <lane id=":J8_0_0" index="0" speed="13.89" length="0.10" shape="24.27,-98.22 24.27,-98.22">
            <neigh lane=":J8_1_0"/>
        </lane>
    </edge>
    <edge id=":J8_1" function="internal">
        <lane id=":J8_1_0" index="0" speed="13.89" length="0.10" shape="24.27,-101.42 24.27,-101.42">
            <neigh lane=":J8_0_0"/>
        </lane>
    </edge>
    <edge id=":J9_0" function="internal">
        <lane id=":J9_0_0" index="0" speed="13.89" length="0.10" shape="88.34,-98.22 88.34,-98.22">
            <neigh lane=":J9_1_0"/>
        </lane>
    </edge>
    <edge id=":J9_1" function="internal">
        <lane id=":J9_1_0" index="0" speed="13.89" length="0.10" shape="88.34,-101.42 88.34,-101.42">
            <neigh lane=":J9_0_0"/>
        </lane>
    </edge>

    <edge id="-E10" from="J12" to="J11" priority="-1">
        <lane id="-E10_0" index="0" speed="13.89" length="63.49" shape="296.15,-98.46 232.66,-98.22">
            <neigh lane="E10_0"/>
        </lane>
    </edge>
    <edge id="-E11" from="J13" to="J12" priority="-1">
        <lane id="-E11_0" index="0" speed="13.89" length="59.34" shape="355.78,-98.46 296.44,-98.46">
            <neigh lane="E11_0"/>
        </lane>
    </edge>
    <edge id="-E12" from="J14" to="J13" priority="-1">
        <lane id="-E12_0" index="0" speed="13.89" length="61.21" shape="417.28,-98.09 356.07,-98.46">
            <neigh lane="E12_0"/>
        </lane>
    </edge>
    <edge id="-E13" from="J1" to="J14" priority="-1">
        <lane id="-E13_0" index="0" speed="13.89" length="79.21" shape="496.80,-98.39 417.59,-98.09">
            <neigh lane="E13_0"/>
        </lane>
    </edge>
    <edge id="-E14" from="J15" to="J1" priority="-1">
        <lane id="-E14_0" index="0" speed="13.89" length="41.78" shape="498.46,-55.01 498.40,-96.79">
            <neigh lane="E14_0"/>
        </lane>
    </edge>
    <edge id="-E15" from="J2" to="J15" priority="-1">
        <lane id="-E15_0" index="0" speed="13.89" length="51.54" shape="498.40,-3.18 498.46,-54.71">
            <neigh lane="E15_0"/>
        </lane>
    </edge>
    <edge id="-E16" from="J16" to="J2" priority="-1">
        <lane id="-E16_0" index="0" speed="13.89" length="70.07" shape="426.74,-1.09 496.81,-1.58">
            <neigh lane="E16_0"/>
        </lane>
    </edge>
    <edge id="-E17" from="J17" to="J16" priority="-1">
        <lane id="-E17_0" index="0" speed="13.89" length="66.96" shape="359.52,-1.54 426.48,-1.09">
            <neigh lane="E17_0"/>
        </lane>
    </edge>
    <edge id="-E18" from="J18" to="J17" priority="-1">
        <lane id="-E18_0" index="0" speed="13.89" length="60.24" shape="298.97,-0.64 359.21,-1.54">
            <neigh lane="E18_0"/>
        </lane>
    </edge>
    <edge id="-E19" from="J19" to="J18" priority="-1">
        <lane id="-E19_0" index="0" speed="13.89" length="69.24" shape="229.44,1.15 298.66,-0.64">
            <neigh lane="E19_0"/>
        </lane>
    </edge>
    <edge id="-E20" from="J20" to="J19" priority="-1">
        <lane id="-E20_0" index="0" speed="13.89" length="71.90" shape="157.35,0.71 229.25,1.15">
            <neigh lane="E20_0"/>
        </lane>
    </edge>
    <edge id="-E21" from="J21" to="J20" priority="-1">
        <lane id="-E21_0" index="0" speed="13.89" length="64.71" shape="92.33,0.71 157.04,0.71">
            <neigh lane="E21_0"/>
        </lane>
    </edge>
    <edge id="-E22" from="J22" to="J21" priority="-1">
        <lane id="-E22_0" index="0" speed="13.89" length="67.85" shape="24.19,0.26 92.04,0.71">
            <neigh lane="E22_0"/>
        </lane>
    </edge>
    <edge id="-E23" from="J23" to="J22" priority="-1">
        <lane id="-E23_0" index="0" speed="13.89" length="57.70" shape="-33.81,1.15 23.88,0.26">
            <neigh lane="E23_0"/>
        </lane>
    </edge>
    <edge id="-E24" from="J3" to="J23" priority="-1">
        <lane id="-E24_0" index="0" speed="13.89" length="63.21" shape="-96.88,-1.47 -33.72,1.15">
            <neigh lane="E24_0"/>
        </lane>
    </edge>
    <edge id="-E25" from="J24" to="J3" priority="-1">
        <lane id="-E25_0" index="0" speed="13.89" length="37.52" shape="-98.54,-40.59 -98.41,-3.06">
            <neigh lane="E25_0"/>
        </lane>
    </edge>
    <edge id="-E26" from="J0" to="J24" priority="-1">
        <lane id="-E26_0" index="0" speed="13.89" length="55.92" shape="-98.41,-96.80 -98.54,-40.88">
            <neigh lane="E26_0"/>
        </lane>
    </edge>
    <edge id="-E5" from="J7" to="J0" priority="-1">
        <lane id="-E5_0" index="0" speed="13.89" length="64.16" shape="-32.64,-98.22 -96.80,-98.39">
            <neigh lane="E5_0"/>
        </lane>
    </edge>
    <edge id="-E6" from="J8" to="J7" priority="-1">
        <lane id="-E6_0" index="0" speed="13.89" length="56.61" shape="24.27,-98.22 -32.34,-98.22">
            <neigh lane="E6_0"/>
        </lane>
    </edge>
    <edge id="-E7" from="J9" to="J8" priority="-1">
        <lane id="-E7_0" index="0" speed="13.89" length="64.07" shape="88.34,-98.22 24.27,-98.22">
            <neigh lane="E7_0"/>
        </lane>
    </edge>
    <edge id="-E8" from="J10" to="J9" priority="-1">
        <lane id="-E8_0" index="0" speed="13.89" length="74.86" shape="163.20,-98.22 88.34,-98.22">
            <neigh lane="E8_0"/>
        </lane>
    </edge>
    <edge id="-E9" from="J11" to="J10" priority="-1">
        <lane id="-E9_0" index="0" speed="13.89" length="69.15" shape="232.35,-98.22 163.20,-98.22">
            <neigh lane="E9_0"/>
        </lane>
    </edge>
    <edge id="E10" from="J11" to="J12" priority="-1">
        <lane id="E10_0" index="0" speed="13.89" length="63.49" shape="232.64,-101.42 296.13,-101.66">
            <neigh lane="-E10_0"/>
        </lane>
    </edge>
    <edge id="E11" from="J12" to="J13" priority="-1">
        <lane id="E11_0" index="0" speed="13.89" length="59.34" shape="296.44,-101.66 355.78,-101.66">
            <neigh lane="-E11_0"/>
        </lane>
    </edge>
    <edge id="E12" from="J13" to="J14" priority="-1">
        <lane id="E12_0" index="0" speed="13.89" length="61.21" shape="356.09,-101.66 417.30,-101.29">
            <neigh lane="-E12_0"/>
        </lane>
    </edge>
    <edge id="E13" from="J14" to="J1" priority="-1">
        <lane id="E13_0" index="0" speed="13.89" length="79.21" shape="417.58,-101.29 496.79,-101.59">
            <neigh lane="-E13_0"/>
        </lane>
    </edge>
    <edge id="E14" from="J1" to="J15" priority="-1">
        <lane id="E14_0" index="0" speed="13.89" length="41.78" shape="501.60,-96.79 501.66,-55.01">
            <neigh lane="-E14_0"/>
        </lane>
    </edge>
    <edge id="E15" from="J15" to="J2" priority="-1">
        <lane id="E15_0" index="0" speed="13.89" length="51.54" shape="501.66,-54.71 501.60,-3.17">
            <neigh lane="-E15_0"/>
        </lane>
    </edge>
    <edge id="E16" from="J2" to="J16" priority="-1">
        <lane id="E16_0" index="0" speed="13.89" length="70.07" shape="496.84,1.62 426.77,2.11">
            <neigh lane="-E16_0"/>
        </lane>
    </edge>
    <edge id="E17" from="J16" to="J17" priority="-1">
        <lane id="E17_0" index="0" speed="13.89" length="66.96" shape="426.45,2.11 359.50,1.66">
            <neigh lane="-E17_0"/>
        </lane>
    </edge>
    <edge id="E18" from="J17" to="J18" priority="-1">
        <lane id="E18_0" index="0" speed="13.89" length="60.24" shape="359.26,1.66 299.02,2.56">
            <neigh lane="-E18_0"/>
        </lane>
    </edge>
    <edge id="E19" from="J18" to="J19" priority="-1">
        <lane id="E19_0" index="0" speed="13.89" length="69.24" shape="298.74,2.56 229.53,4.35">
            <neigh lane="-E19_0"/>
        </lane>
    </edge>
    <edge id="E20" from="J19" to="J20" priority="-1">
        <lane id="E20_0" index="0" speed="13.89" length="71.90" shape="229.23,4.35 157.33,3.91">
            <neigh lane="-E20_0"/>
        </lane>
    </edge>
    <edge id="E21" from="J20" to="J21" priority="-1">
        <lane id="E21_0" index="0" speed="13.89" length="64.71" shape="157.04,3.91 92.33,3.91">
            <neigh lane="-E21_0"/>
        </lane>
    </edge>
    <edge id="E22" from="J21" to="J22" priority="-1">
        <lane id="E22_0" index="0" speed="13.89" length="67.85" shape="92.02,3.91 24.17,3.46">
            <neigh lane="-E22_0"/>
        </lane>
    </edge>
    <edge id="E23" from="J22" to="J23" priority="-1">
        <lane id="E23_0" index="0" speed="13.89" length="57.70" shape="23.93,3.46 -33.77,4.35">
            <neigh lane="-E23_0"/>
        </lane>
    </edge>
    <edge id="E24" from="J23" to="J3" priority="-1">
        <lane id="E24_0" index="0" speed="13.89" length="63.21" shape="-33.86,4.35 -97.01,1.73">
            <neigh lane="-E24_0"/>
        </lane>
    </edge>
    <edge id="E25" from="J3" to="J24" priority="-1">
        <lane id="E25_0" index="0" speed="13.89" length="37.52" shape="-101.61,-3.05 -101.74,-40.58">
            <neigh lane="-E25_0"/>
        </lane>
    </edge>
    <edge id="E26" from="J24" to="J0" priority="-1">
        <lane id="E26_0" index="0" speed="13.89" length="55.92" shape="-101.74,-40.88 -101.61,-96.80">
            <neigh lane="-E26_0"/>
        </lane>
    </edge>
    <edge id="E5" from="J0" to="J7" priority="-1">
        <lane id="E5_0" index="0" speed="13.89" length="64.16" shape="-96.79,-101.59 -32.64,-101.42">
            <neigh lane="-E5_0"/>
        </lane>
    </edge>
    <edge id="E6" from="J7" to="J8" priority="-1">
        <lane id="E6_0" index="0" speed="13.89" length="56.61" shape="-32.34,-101.42 24.27,-101.42">
            <neigh lane="-E6_0"/>
        </lane>
    </edge>
    <edge id="E7" from="J8" to="J9" priority="-1">
        <lane id="E7_0" index="0" speed="13.89" length="64.07" shape="24.27,-101.42 88.34,-101.42">
            <neigh lane="-E7_0"/>
        </lane>
    </edge>
    <edge id="E8" from="J9" to="J10" priority="-1">
        <lane id="E8_0" index="0" speed="13.89" length="74.86" shape="88.34,-101.42 163.20,-101.42">
            <neigh lane="-E8_0"/>
        </lane>
    </edge>
    <edge id="E9" from="J10" to="J11" priority="-1">
        <lane id="E9_0" index="0" speed="13.89" length="69.15" shape="163.20,-101.42 232.35,-101.42">
            <neigh lane="-E9_0"/>
        </lane>
    </edge>

    <junction id="J0" type="priority" x="-100.00" y="-100.00" incLanes="-E5_0 E26_0" intLanes=":J0_0_0 :J0_1_0" shape="-96.81,-96.79 -96.79,-103.19 -100.35,-102.49 -101.60,-101.60 -102.49,-100.36 -103.03,-98.76 -103.21,-96.81">
        <request index="0" response="00" foes="00" cont="0"/>
        <request index="1" response="00" foes="00" cont="0"/>
    </junction>
    <junction id="J1" type="priority" x="500.00" y="-100.00" incLanes="-E14_0 E13_0" intLanes=":J1_0_0 :J1_1_0" shape="496.80,-96.79 503.20,-96.80 502.49,-100.36 501.59,-101.60 500.35,-102.49 498.74,-103.02 496.78,-103.19">
        <request index="0" response="00" foes="00" cont="0"/>
        <request index="1" response="00" foes="00" cont="0"/>
    </junction>
    <junction id="J10" type="priority" x="163.20" y="-99.82" incLanes="-E9_0 E8_0" intLanes=":J10_0_0 :J10_1_0" shape="163.20,-96.62 163.20,-103.02 163.20,-96.62">
        <request index="0" response="00" foes="00" cont="0"/>
        <request index="1" response="00" foes="00" cont="0"/>
    </junction>
    <junction id="J11" type="priority" x="232.50" y="-99.82" incLanes="-E10_0 E9_0" intLanes=":J11_0_0 :J11_1_0" shape="232.66,-96.62 232.64,-103.02 232.35,-103.02 232.35,-96.62">
        <request index="0" response="00" foes="00" cont="0"/>
        <request index="1" response="00" foes="00" cont="0"/>
    </junction>
    <junction id="J12" type="priority" x="296.29" y="-100.06" incLanes="-E11_0 E10_0" intLanes=":J12_0_0 :J12_1_0" shape="296.44,-96.86 296.44,-103.26 296.13,-103.26 296.15,-96.86">
        <request index="0" response="00" foes="00" cont="0"/>
        <request index="1" response="00" foes="00" cont="0"/>
    </junction>
    <junction id="J13" type="priority" x="355.93" y="-100.06" incLanes="-E12_0 E11_0" intLanes=":J13_0_0 :J13_1_0" shape="356.06,-96.86 356.10,-103.26 355.78,-103.26 355.78,-96.86">
        <request index="0" response="00" foes="00" cont="0"/>
        <request index="1" response="00" foes="00" cont="0"/>
    </junction>
    <junction id="J14" type="priority" x="417.44" y="-99.69" incLanes="-E13_0 E12_0" intLanes=":J14_0_0 :J14_1_0" shape="417.60,-96.49 417.58,-102.89 417.31,-102.89 417.27,-96.49">
        <request index="0" response="00" foes="00" cont="0"/>
        <request index="1" response="00" foes="00" cont="0"/>
    </junction>
    <junction id="J15" type="priority" x="500.06" y="-54.86" incLanes="-E15_0 E14_0" intLanes=":J15_0_0 :J15_1_0" shape="496.86,-54.71 503.26,-54.71 503.26,-55.01 496.86,-55.01">
        <request index="0" response="00" foes="00" cont="0"/>
        <request index="1" response="00" foes="00" cont="0"/>
    </junction>
    <junction id="J16" type="priority" x="426.61" y="0.51" incLanes="E16_0 -E17_0" intLanes=":J16_0_0 :J16_1_0" shape="426.78,3.71 426.73,-2.69 426.49,-2.69 426.44,3.71">
        <request index="0" response="00" foes="00" cont="0"/>
        <request index="1" response="00" foes="00" cont="0"/>
    </junction>
    <junction id="J17" type="priority" x="359.37" y="0.06" incLanes="E17_0 -E18_0" intLanes=":J17_0_0 :J17_1_0" shape="359.49,3.26 359.53,-3.14 359.18,-3.14 359.28,3.26">
        <request index="0" response="00" foes="00" cont="0"/>
        <request index="1" response="00" foes="00" cont="0"/>
    </junction>
    <junction id="J18" type="priority" x="298.85" y="0.96" incLanes="E18_0 -E19_0" intLanes=":J18_0_0 :J18_1_0" shape="299.04,4.16 298.95,-2.24 298.62,-2.24 298.79,4.16">
        <request index="0" response="00" foes="00" cont="0"/>
        <request index="1" response="00" foes="00" cont="0"/>
    </junction>
    <junction id="J19" type="priority" x="229.36" y="2.75" incLanes="E19_0 -E20_0" intLanes=":J19_0_0 :J19_1_0" shape="229.57,5.95 229.40,-0.45 229.25,-0.45 229.22,5.95">
        <request index="0" response="00" foes="00" cont="0"/>
        <request index="1" response="00" foes="00" cont="0"/>
    </junction>
    <junction id="J2" type="priority" x="500.00" y="0.00" incLanes="E15_0 -E16_0" intLanes=":J2_0_0 :J2_1_0" shape="503.20,-3.17 496.80,-3.18 496.85,3.22 500.38,2.49 501.61,1.60 502.49,0.36 503.02,-1.23">
        <request index="0" response="00" foes="00" cont="0"/>
        <request index="1" response="00" foes="00" cont="0"/>
    </junction>
    <junction id="J20" type="priority" x="157.19" y="2.31" incLanes="E20_0 -E21_0" intLanes=":J20_0_0 :J20_1_0" shape="157.32,5.51 157.36,-0.89 157.04,-0.89 157.04,5.51">
        <request index="0" response="00" foes="00" cont="0"/>
        <request index="1" response="00" foes="00" cont="0"/>
    </junction>
    <junction id="J21" type="priority" x="92.18" y="2.31" incLanes="E21_0 -E22_0" intLanes=":J21_0_0 :J21_1_0" shape="92.33,5.51 92.33,-0.89 92.05,-0.89 92.01,5.51">
        <request index="0" response="00" foes="00" cont="0"/>
        <request index="1" response="00" foes="00" cont="0"/>
    </junction>
    <junction id="J22" type="priority" x="24.04" y="1.86" incLanes="E22_0 -E23_0" intLanes=":J22_0_0 :J22_1_0" shape="24.16,5.06 24.20,-1.34 23.85,-1.34 23.95,5.06">
        <request index="0" response="00" foes="00" cont="0"/>
        <request index="1" response="00" foes="00" cont="0"/>
    </junction>
    <junction id="J23" type="priority" x="-33.79" y="2.75" incLanes="E23_0 -E24_0" intLanes=":J23_0_0 :J23_1_0" shape="-33.65,5.95 -33.75,-0.45 -34.01,5.94">
        <request index="0" response="00" foes="00" cont="0"/>
        <request index="1" response="00" foes="00" cont="0"/>
    </junction>
    <junction id="J24" type="priority" x="-100.14" y="-40.73" incLanes="E25_0 -E26_0" intLanes=":J24_0_0 :J24_1_0" shape="-103.34,-40.57 -96.94,-40.59 -96.94,-40.87 -103.34,-40.89">
        <request index="0" response="00" foes="00" cont="0"/>
        <request index="1" response="00" foes="00" cont="0"/>
    </junction>
    <junction id="J3" type="priority" x="-100.00" y="0.00" incLanes="E24_0 -E25_0" intLanes=":J3_0_0 :J3_1_0" shape="-97.08,3.32 -96.81,-3.07 -103.21,-3.05 -102.52,0.38 -101.67,1.60 -100.47,2.50 -98.94,3.08">
        <request index="0" response="00" foes="00" cont="0"/>
        <request index="1" response="00" foes="00" cont="0"/>
    </junction>
    <junction id="J7" type="priority" x="-32.49" y="-99.82" incLanes="-E6_0 E5_0" intLanes=":J7_0_0 :J7_1_0" shape="-32.34,-96.62 -32.34,-103.02 -32.63,-103.02 -32.65,-96.62">
        <request index="0" response="00" foes="00" cont="0"/>
        <request index="1" response="00" foes="00" cont="0"/>
    </junction>
    <junction id="J8" type="priority" x="24.27" y="-99.82" incLanes="-E7_0 E6_0" intLanes=":J8_0_0 :J8_1_0" shape="24.27,-96.62 24.27,-103.02 24.27,-96.62">
        <request index="0" response="00" foes="00" cont="0"/>
        <request index="1" response="00" foes="00" cont="0"/>
    </junction>
    <junction id="J9" type="priority" x="88.34" y="-99.82" incLanes="-E8_0 E7_0" intLanes=":J9_0_0 :J9_1_0" shape="88.34,-96.62 88.34,-103.02 88.34,-96.62">
        <request index="0" response="00" foes="00" cont="0"/>
        <request index="1" response="00" foes="00" cont="0"/>
    </junction>

    <connection from="-E10" to="-E9" fromLane="0" toLane="0" via=":J11_0_0" dir="s" state="M"/>
    <connection from="-E11" to="-E10" fromLane="0" toLane="0" via=":J12_0_0" dir="s" state="M"/>
    <connection from="-E12" to="-E11" fromLane="0" toLane="0" via=":J13_0_0" dir="s" state="M"/>
    <connection from="-E13" to="-E12" fromLane="0" toLane="0" via=":J14_0_0" dir="s" state="M"/>
    <connection from="-E14" to="-E13" fromLane="0" toLane="0" via=":J1_0_0" dir="r" state="M"/>
    <connection from="-E15" to="-E14" fromLane="0" toLane="0" via=":J15_0_0" dir="s" state="M"/>
    <connection from="-E16" to="-E15" fromLane="0" toLane="0" via=":J2_1_0" dir="r" state="M"/>
    <connection from="-E17" to="-E16" fromLane="0" toLane="0" via=":J16_1_0" dir="s" state="M"/>
    <connection from="-E18" to="-E17" fromLane="0" toLane="0" via=":J17_1_0" dir="s" state="M"/>
    <connection from="-E19" to="-E18" fromLane="0" toLane="0" via=":J18_1_0" dir="s" state="M"/>
    <connection from="-E20" to="-E19" fromLane="0" toLane="0" via=":J19_1_0" dir="s" state="M"/>
    <connection from="-E21" to="-E20" fromLane="0" toLane="0" via=":J20_1_0" dir="s" state="M"/>
    <connection from="-E22" to="-E21" fromLane="0" toLane="0" via=":J21_1_0" dir="s" state="M"/>
    <connection from="-E23" to="-E22" fromLane="0" toLane="0" via=":J22_1_0" dir="s" state="M"/>
    <connection from="-E24" to="-E23" fromLane="0" toLane="0" via=":J23_1_0" dir="s" state="M"/>
    <connection from="-E25" to="-E24" fromLane="0" toLane="0" via=":J3_1_0" dir="r" state="M"/>
    <connection from="-E26" to="-E25" fromLane="0" toLane="0" via=":J24_1_0" dir="s" state="M"/>
    <connection from="-E5" to="-E26" fromLane="0" toLane="0" via=":J0_0_0" dir="r" state="M"/>
    <connection from="-E6" to="-E5" fromLane="0" toLane="0" via=":J7_0_0" dir="s" state="M"/>
    <connection from="-E7" to="-E6" fromLane="0" toLane="0" via=":J8_0_0" dir="s" state="M"/>
    <connection from="-E8" to="-E7" fromLane="0" toLane="0" via=":J9_0_0" dir="s" state="M"/>
    <connection from="-E9" to="-E8" fromLane="0" toLane="0" via=":J10_0_0" dir="s" state="M"/>
    <connection from="E10" to="E11" fromLane="0" toLane="0" via=":J12_1_0" dir="s" state="M"/>
    <connection from="E11" to="E12" fromLane="0" toLane="0" via=":J13_1_0" dir="s" state="M"/>
    <connection from="E12" to="E13" fromLane="0" toLane="0" via=":J14_1_0" dir="s" state="M"/>
    <connection from="E13" to="E14" fromLane="0" toLane="0" via=":J1_1_0" dir="l" state="M"/>
    <connection from="E14" to="E15" fromLane="0" toLane="0" via=":J15_1_0" dir="s" state="M"/>
    <connection from="E15" to="E16" fromLane="0" toLane="0" via=":J2_0_0" dir="l" state="M"/>
    <connection from="E16" to="E17" fromLane="0" toLane="0" via=":J16_0_0" dir="s" state="M"/>
    <connection from="E17" to="E18" fromLane="0" toLane="0" via=":J17_0_0" dir="s" state="M"/>
    <connection from="E18" to="E19" fromLane="0" toLane="0" via=":J18_0_0" dir="s" state="M"/>
    <connection from="E19" to="E20" fromLane="0" toLane="0" via=":J19_0_0" dir="s" state="M"/>
    <connection from="E20" to="E21" fromLane="0" toLane="0" via=":J20_0_0" dir="s" state="M"/>
    <connection from="E21" to="E22" fromLane="0" toLane="0" via=":J21_0_0" dir="s" state="M"/>
    <connection from="E22" to="E23" fromLane="0" toLane="0" via=":J22_0_0" dir="s" state="M"/>
    <connection from="E23" to="E24" fromLane="0" toLane="0" via=":J23_0_0" dir="s" state="M"/>
    <connection from="E24" to="E25" fromLane="0" toLane="0" via=":J3_0_0" dir="l" state="M"/>
    <connection from="E25" to="E26" fromLane="0" toLane="0" via=":J24_0_0" dir="s" state="M"/>
    <connection from="E26" to="E5" fromLane="0" toLane="0" via=":J0_1_0" dir="l" state="M"/>
    <connection from="E5" to="E6" fromLane="0" toLane="0" via=":J7_1_0" dir="s" state="M"/>
    <connection from="E6" to="E7" fromLane="0" toLane="0" via=":J8_1_0" dir="s" state="M"/>