<configuration>
    <input>
        <net-file value="map.net.xml"/>
        <route-files value="traffic/435.rou.xml"/>
        <gui-settings-file value="scenario.settings.xml"/>
    </input>
    <time>
        <begin value="0"/>
        <end value="900"/>
    </time>
</configuration>
