<routes>

    <route id="routeEgo" edges="-E12 -E11 -E10 -E9 -E8 -E7 -E6 -E5 -E26 -E25 -E24 -E23 -E22 -E21 -E20 -E19  -E18  -E17 -E16 -E15 -E14 "/> 
    
    <vType id="vType0" length="5" maxSpeed="6" carFollowModel="Krauss" accel="2.6" decel="4.5" sigma="0.5" color="0,1,0"/>

    <route id="rt1" edges="-E11 -E10 -E9 -E8 -E7 -E6 -E5 -E26 -E25 -E24 -E23 -E22 -E21 -E20 -E19 -E18 -E17 -E16 -E15 -E14 -E13 -E12"/>
    <route id="rt2" edges="-E9 -E8 -E7 -E6 -E5 -E26 -E25 -E24 -E23 -E22 -E21 -E20 -E19 -E18 -E17 -E16 -E15 -E14 -E13 -E12 -E11 -E10"/>
    <route id="rt3" edges="-E23 -E22 -E21 -E20 -E19 -E18 -E17 -E16 -E15 -E14 -E13 -E12 -E11 -E10 -E9 -E8 -E7 -E6 -E5 -E26 -E25 -E24"/>
    <route id="rt4" edges="-E20 -E19 -E18 -E17 -E16 -E15 -E14 -E13 -E12 -E11 -E10 -E9 -E8 -E7 -E6 -E5 -E26 -E25 -E24 -E23 -E22 -E21 -E20"/>
    <route id="rt5" edges="-E8 -E7 -E6 -E5 -E26 -E25 -E24 -E23 -E22 -E21 -E20 -E19 -E18 -E17 -E16 -E15 -E14 -E13 -E12 -E11 -E10 -E9"/>
    <route id="rt6" edges="-E10 -E9 -E8 -E7 -E6 -E5 -E26 -E25 -E24 -E23 -E22 -E21 -E20 -E19 -E18 -E17 -E16 -E15 -E14 -E13 -E12"/>
    <route id="rt7" edges="-E23 -E22 -E21 -E20 -E19 -E18 -E17 -E16 -E15 -E14 -E13 -E12 -E11 -E10 -E9 -E8 -E7 -E6 -E5 -E26 -E25 -E24"/>
    <route id="rt8" edges="-E14 -E13 -E12 -E11 -E10 -E9 -E8 -E7 -E6 -E5 -E26 -E25 -E24 -E23 -E22 -E21 -E20 -E19 -E18 -E17 -E16 -E15"/>



    <route id="rt91" edges="E5 E6 E7 E8 E9 E10 E11 E12 E13 E14 E15 E16 E17 E18 E19 E20 E21 E22 E23 E24 E25 E26"/>
    <route id="rt92" edges="E25 E26 E5 E6 E7 E8 E9 E10 E11 E12 E13 E14 E15 E16 E17 E18 E19 E20 E21 E22 E23 E24 E25"/>
    <route id="rt93" edges="E18 E19 E20 E21 E22 E23 E24 E25 E26 E5 E6 E7 E8 E9 E10 E11 E12 E13 E14 E15 E16 E17 E18"/>
    <route id="rt94" edges="E14 E15 E16 E17 E18 E19 E20 E21 E22 E23 E24 E25 E26 E5 E6 E7 E8 E9 E10 E11 E12 E13 E14"/>
    <route id="rt95" edges="E23 E24 E25 E26 E5 E6 E7 E8 E9 E10 E11 E12 E13 E14 E15 E16 E17 E18 E19 E20 E21 E22 E23"/>
    <route id="rt96" edges="E7 E8 E9 E10 E11 E12 E13 E14 E15 E16 E17 E18 E19 E20 E21 E22 E23 E24 E25 E26 E5 E6"/>
    <route id="rt97" edges="E19 E20 E21 E22 E23 E24 E25 E26 E5 E6 E7 E8 E9 E10 E11 E12 E13 E14 E15 E16 E17 E18 E19"/>


    <vType id="vType1" length="5" maxSpeed="4.5" carFollowModel="Krauss" accel="2.6" decel="4.5" sigma="0.5" color="1,1,0.5"/>
    <vType id="vType2" length="5" maxSpeed="5.5" carFollowModel="Krauss" accel="2.6" decel="4.5" sigma="0.5" color="1,0.8,0.2"/>
    <vType id="vType3" length="5" maxSpeed="6.5" carFollowModel="Krauss" accel="2.6" decel="4.5" sigma="0.5" color="1,0.7,0"/>
    <vType id="vType4" length="5" maxSpeed="7.5" carFollowModel="Krauss" accel="2.6" decel="4.5" sigma="0.5" color="1,0.2,0"/>
    <vType id="vType5" length="5" maxSpeed="8.5" carFollowModel="Krauss" accel="2.6" decel="4.5" sigma="0.5" color="1,0,0"/>
</routes>