<configuration>
    <input>
        <net-file value="salida.net.xml"/>
        <route-files value="overtaking.rou.xml"/>
        <gui-settings-file value="overtaking.settings.xml"/>
    </input>
    <time>
        <begin value="0"/>
        <end value="10000000"/>
    <step-length value="0.4"/>
    </time>
</configuration>
