<routes>
<!-- Route -->
    <route id="route0" edges="E0" probability="1.0"/>

<!-- Vehicle -->
    <vType id="Car0" accel="1" decel="5" sigma="0.5" length="4" minGap="2.5" maxSpeed="10"/>
    <vType id="Car1" accel="1" decel="5" sigma="0.5" length="4" minGap="2.5" maxSpeed="20"/>
    <vType id="Car2" accel="1" decel="5" sigma="0.5" length="4" minGap="2.5" maxSpeed="30"/>
    

<!-- Ego car -->
    <route id="routeEgo" edges="E0"/>
    <route id="adversary" edges="E1"/>

    <!-- Ego -->
    <vType id="vType0" length="5" maxSpeed="6" carFollowModel="Krauss" accel="2.6" decel="4.5" sigma="0.5" color="1,0,0"/>
    
    <!-- Adver -->
    <vType id="vType1" length="5" maxSpeed="6" carFollowModel="Krauss" accel="2.6" decel="4.5" sigma="0.5" color="0,1,0"/>

</routes>