<?xml version="1.0" encoding="UTF-8"?>


<net version="1.9" junctionCornerDetail="5" limitTurnSpeed="5.50" xmlns:xsi="http://www.w3.org/2001/XMLSchema-instance" xsi:noNamespaceSchemaLocation="http://sumo.dlr.de/xsd/net_file.xsd">

    <location netOffset="0.00,0.00" convBoundary="0.00,0.00,1000.00,0.00" origBoundary="-10000000000.00,-10000000000.00,10000000000.00,10000000000.00" projParameter="!"/>

    <edge id="E0" from="1" to="0" priority="1">
        <lane id="E0_0" index="0" speed="50.00" length="1000.00" shape="1000.00,1.60 0.00,1.60">
            <neigh lane="E1_0"/>
        </lane>
    </edge>
    <edge id="E1" from="0" to="1" priority="1">
        <lane id="E1_0" index="0" speed="50.00" length="1000.00" shape="0.00,-1.60 1000.00,-1.60">
            <neigh lane="E0_0"/>
        </lane>
    </edge>

    <junction id="0" type="dead_end" x="0.00" y="0.00" incLanes="E0_0" intLanes="" shape="0.00,0.00 0.00,3.20 0.00,0.00"/>
    <junction id="1" type="dead_end" x="1000.00" y="0.00" incLanes="E1_0" intLanes="" shape="1000.00,0.00 1000.00,-3.20 1000.00,0.00"/>

</net>
