<?xml version="1.0" encoding="UTF-8"?>

<!-- generated on 2023-05-28 21:07:37 by Eclipse SUMO duarouter Version 1.16.0
<configuration xmlns:xsi="http://www.w3.org/2001/XMLSchema-instance" xsi:noNamespaceSchemaLocation="http://sumo.dlr.de/xsd/duarouterConfiguration.xsd">

    <input>
        <net-file value="/home/smarts/scenarios/sumo/intersections/1_to_2lane_left_turn_t_agents_1/map.net.xml"/>
        <route-files value="/tmp/tmpzw1wm4uf/trips.trips.xml"/>
    </input>

    <output>
        <output-file value="/home/smarts/scenarios/sumo/intersections/1_to_2lane_left_turn_t_agents_1/build/traffic/138.rou.xml"/>
    </output>

    <processing>
        <unsorted-input value="true"/>
        <repair value="true"/>
    </processing>

    <report>
        <error-log value="/root/.smarts/_duarouter_routing/traffic/138.log"/>
        <no-step-log value="true"/>
    </report>

    <random_number>
        <seed value="42"/>
    </random_number>

</configuration>
-->

<routes xmlns:xsi="http://www.w3.org/2001/XMLSchema-instance" xsi:noNamespaceSchemaLocation="http://sumo.dlr.de/xsd/routes_file.xsd">
    <vType id="actor-car--4238973458400510012" minGap="2.50" maxSpeed="55.50" speedFactor="normc(1.00,0.10,0.20,2.00)" vClass="passenger" accel="2.6" decel="4.5" sigma="0.5"/>
    <vehicle id="car-flow-route-E0_0_0-E1_1_max-6371496855813406146--7266489842092764092--2-0.0" type="actor-car--4238973458400510012" depart="0.46" departLane="0" departPos="0.00" departSpeed="max" arrivalLane="1" arrivalPos="max">
        <route edges="E0 E1"/>
    </vehicle>
    <vehicle id="car-flow-route--E1_1_0--E4_1_max-248899497872519462--7266489842092764092--1-0.0" type="actor-car--4238973458400510012" depart="1.23" departLane="1" departPos="0.00" departSpeed="max" arrivalLane="1" arrivalPos="max">
        <route edges="-E1 -E4"/>
    </vehicle>
    <vehicle id="car-flow-route-E4_1_0-E1_1_max--2352894271058968195--7266489842092764092--0-0.0" type="actor-car--4238973458400510012" depart="1.37" departLane="1" departPos="0.00" departSpeed="max" arrivalLane="1" arrivalPos="max">
        <route edges="E4 E1"/>
    </vehicle>
    <vehicle id="car-flow-route-E0_0_0--E4_0_max-3409258604394150170--7266489842092764092--3-0.0" type="actor-car--4238973458400510012" depart="2.91" departLane="0" departPos="0.00" departSpeed="max" arrivalLane="0" arrivalPos="max">
        <route edges="E0 -E4"/>
    </vehicle>
    <vehicle id="car-flow-route-E0_0_0-E1_1_max-6371496855813406146--7266489842092764092--2-0.1" type="actor-car--4238973458400510012" depart="7.72" departLane="0" departPos="0.00" departSpeed="max" arrivalLane="1" arrivalPos="max">
        <route edges="E0 E1"/>
    </vehicle>
    <vehicle id="car-flow-route--E1_1_0--E4_1_max-248899497872519462--7266489842092764092--1-0.1" type="actor-car--4238973458400510012" depart="8.20" departLane="1" departPos="0.00" departSpeed="max" arrivalLane="1" arrivalPos="max">
        <route edges="-E1 -E4"/>
    </vehicle>
    <vehicle id="car-flow-route-E4_1_0-E1_1_max--2352894271058968195--7266489842092764092--0-0.1" type="actor-car--4238973458400510012" depart="9.24" departLane="1" departPos="0.00" departSpeed="max" arrivalLane="1" arrivalPos="max">
        <route edges="E4 E1"/>
    </vehicle>
    <vehicle id="car-flow-route-E0_0_0--E4_0_max-3409258604394150170--7266489842092764092--3-0.1" type="actor-car--4238973458400510012" depart="11.07" departLane="0" departPos="0.00" departSpeed="max" arrivalLane="0" arrivalPos="max">
        <route edges="E0 -E4"/>
    </vehicle>
    <vehicle id="car-flow-route-E0_0_0-E1_1_max-6371496855813406146--7266489842092764092--2-0.2" type="actor-car--4238973458400510012" depart="14.97" departLane="0" departPos="0.00" departSpeed="max" arrivalLane="1" arrivalPos="max">
        <route edges="E0 E1"/>
    </vehicle>
    <vehicle id="car-flow-route--E1_1_0--E4_1_max-248899497872519462--7266489842092764092--1-0.2" type="actor-car--4238973458400510012" depart="15.16" departLane="1" departPos="0.00" departSpeed="max" arrivalLane="1" arrivalPos="max">
        <route edges="-E1 -E4"/>
    </vehicle>
    <vehicle id="car-flow-route-E4_1_0-E1_1_max--2352894271058968195--7266489842092764092--0-0.2" type="actor-car--4238973458400510012" depart="17.10" departLane="1" departPos="0.00" departSpeed="max" arrivalLane="1" arrivalPos="max">
        <route edges="E4 E1"/>
    </vehicle>
    <vehicle id="car-flow-route-E0_0_0--E4_0_max-3409258604394150170--7266489842092764092--3-0.2" type="actor-car--4238973458400510012" depart="19.24" departLane="0" departPos="0.00" departSpeed="max" arrivalLane="0" arrivalPos="max">
        <route edges="E0 -E4"/>
    </vehicle>
    <vehicle id="car-flow-route--E1_1_0--E4_1_max-248899497872519462--7266489842092764092--1-0.3" type="actor-car--4238973458400510012" depart="22.13" departLane="1" departPos="0.00" departSpeed="max" arrivalLane="1" arrivalPos="max">
        <route edges="-E1 -E4"/>
    </vehicle>
    <vehicle id="car-flow-route-E0_0_0-E1_1_max-6371496855813406146--7266489842092764092--2-0.3" type="actor-car--4238973458400510012" depart="22.22" departLane="0" departPos="0.00" departSpeed="max" arrivalLane="1" arrivalPos="max">
        <route edges="E0 E1"/>
    </vehicle>
    <vehicle id="car-flow-route-E4_1_0-E1_1_max--2352894271058968195--7266489842092764092--0-0.3" type="actor-car--4238973458400510012" depart="24.96" departLane="1" departPos="0.00" departSpeed="max" arrivalLane="1" arrivalPos="max">
        <route edges="E4 E1"/>
    </vehicle>
    <vehicle id="car-flow-route-E0_0_0--E4_0_max-3409258604394150170--7266489842092764092--3-0.3" type="actor-car--4238973458400510012" depart="27.41" departLane="0" departPos="0.00" departSpeed="max" arrivalLane="0" arrivalPos="max">
        <route edges="E0 -E4"/>
    </vehicle>
    <vehicle id="car-flow-route--E1_1_0--E4_1_max-248899497872519462--7266489842092764092--1-0.4" type="actor-car--4238973458400510012" depart="29.10" departLane="1" departPos="0.00" departSpeed="max" arrivalLane="1" arrivalPos="max">
        <route edges="-E1 -E4"/>
    </vehicle>
    <vehicle id="car-flow-route-E0_0_0-E1_1_max-6371496855813406146--7266489842092764092--2-0.4" type="actor-car--4238973458400510012" depart="29.47" departLane="0" departPos="0.00" departSpeed="max" arrivalLane="1" arrivalPos="max">
        <route edges="E0 E1"/>
    </vehicle>
    <vehicle id="car-flow-route-E4_1_0-E1_1_max--2352894271058968195--7266489842092764092--0-0.4" type="actor-car--4238973458400510012" depart="32.83" departLane="1" departPos="0.00" departSpeed="max" arrivalLane="1" arrivalPos="max">
        <route edges="E4 E1"/>
    </vehicle>
    <vehicle id="car-flow-route-E0_0_0--E4_0_max-3409258604394150170--7266489842092764092--3-0.4" type="actor-car--4238973458400510012" depart="35.57" departLane="0" departPos="0.00" departSpeed="max" arrivalLane="0" arrivalPos="max">
        <route edges="E0 -E4"/>
    </vehicle>
    <vehicle id="car-flow-route--E1_1_0--E4_1_max-248899497872519462--7266489842092764092--1-0.5" type="actor-car--4238973458400510012" depart="36.07" departLane="1" departPos="0.00" departSpeed="max" arrivalLane="1" arrivalPos="max">
        <route edges="-E1 -E4"/>
    </vehicle>
    <vehicle id="car-flow-route-E0_0_0-E1_1_max-6371496855813406146--7266489842092764092--2-0.5" type="actor-car--4238973458400510012" depart="36.72" departLane="0" departPos="0.00" departSpeed="max" arrivalLane="1" arrivalPos="max">
        <route edges="E0 E1"/>
    </vehicle>
    <vehicle id="car-flow-route-E4_1_0-E1_1_max--2352894271058968195--7266489842092764092--0-0.5" type="actor-car--4238973458400510012" depart="40.69" departLane="1" departPos="0.00" departSpeed="max" arrivalLane="1" arrivalPos="max">
        <route edges="E4 E1"/>
    </vehicle>
    <vehicle id="car-flow-route--E1_1_0--E4_1_max-248899497872519462--7266489842092764092--1-0.6" type="actor-car--4238973458400510012" depart="43.03" departLane="1" departPos="0.00" departSpeed="max" arrivalLane="1" arrivalPos="max">
        <route edges="-E1 -E4"/>
    </vehicle>
    <vehicle id="car-flow-route-E0_0_0--E4_0_max-3409258604394150170--7266489842092764092--3-0.5" type="actor-car--4238973458400510012" depart="43.74" departLane="0" departPos="0.00" departSpeed="max" arrivalLane="0" arrivalPos="max">
        <route edges="E0 -E4"/>
    </vehicle>
    <vehicle id="car-flow-route-E0_0_0-E1_1_max-6371496855813406146--7266489842092764092--2-0.6" type="actor-car--4238973458400510012" depart="43.98" departLane="0" departPos="0.00" departSpeed="max" arrivalLane="1" arrivalPos="max">
        <route edges="E0 E1"/>
    </vehicle>
    <vehicle id="car-flow-route-E4_1_0-E1_1_max--2352894271058968195--7266489842092764092--0-0.6" type="actor-car--4238973458400510012" depart="48.56" departLane="1" departPos="0.00" departSpeed="max" arrivalLane="1" arrivalPos="max">
        <route edges="E4 E1"/>
    </vehicle>
    <vehicle id="car-flow-route--E1_1_0--E4_1_max-248899497872519462--7266489842092764092--1-0.7" type="actor-car--4238973458400510012" depart="50.00" departLane="1" departPos="0.00" departSpeed="max" arrivalLane="1" arrivalPos="max">
        <route edges="-E1 -E4"/>
    </vehicle>
    <vehicle id="car-flow-route-E0_0_0-E1_1_max-6371496855813406146--7266489842092764092--2-0.7" type="actor-car--4238973458400510012" depart="51.23" departLane="0" departPos="0.00" departSpeed="max" arrivalLane="1" arrivalPos="max">
        <route edges="E0 E1"/>
    </vehicle>
    <vehicle id="car-flow-route-E0_0_0--E4_0_max-3409258604394150170--7266489842092764092--3-0.6" type="actor-car--4238973458400510012" depart="51.90" departLane="0" departPos="0.00" departSpeed="max" arrivalLane="0" arrivalPos="max">
        <route edges="E0 -E4"/>
    </vehicle>
    <vehicle id="car-flow-route-E4_1_0-E1_1_max--2352894271058968195--7266489842092764092--0-0.7" type="actor-car--4238973458400510012" depart="56.42" departLane="1" departPos="0.00" departSpeed="max" arrivalLane="1" arrivalPos="max">
        <route edges="E4 E1"/>
    </vehicle>
    <vehicle id="car-flow-route--E1_1_0--E4_1_max-248899497872519462--7266489842092764092--1-0.8" type="actor-car--4238973458400510012" depart="56.97" departLane="1" departPos="0.00" departSpeed="max" arrivalLane="1" arrivalPos="max">
        <route edges="-E1 -E4"/>
    </vehicle>
    <vehicle id="car-flow-route-E0_0_0-E1_1_max-6371496855813406146--7266489842092764092--2-0.8" type="actor-car--4238973458400510012" depart="58.48" departLane="0" departPos="0.00" departSpeed="max" arrivalLane="1" arrivalPos="max">
        <route edges="E0 E1"/>
    </vehicle>
    <vehicle id="car-flow-route-E0_0_0--E4_0_max-3409258604394150170--7266489842092764092--3-0.7" type="actor-car--4238973458400510012" depart="60.07" departLane="0" departPos="0.00" departSpeed="max" arrivalLane="0" arrivalPos="max">
        <route edges="E0 -E4"/>
    </vehicle>
    <vehicle id="car-flow-route--E1_1_0--E4_1_max-248899497872519462--7266489842092764092--1-0.9" type="actor-car--4238973458400510012" depart="63.93" departLane="1" departPos="0.00" departSpeed="max" arrivalLane="1" arrivalPos="max">
        <route edges="-E1 -E4"/>
    </vehicle>
    <vehicle id="car-flow-route-E4_1_0-E1_1_max--2352894271058968195--7266489842092764092--0-0.8" type="actor-car--4238973458400510012" depart="64.28" departLane="1" departPos="0.00" departSpeed="max" arrivalLane="1" arrivalPos="max">
        <route edges="E4 E1"/>
    </vehicle>
    <vehicle id="car-flow-route-E0_0_0-E1_1_max-6371496855813406146--7266489842092764092--2-0.9" type="actor-car--4238973458400510012" depart="65.73" departLane="0" departPos="0.00" departSpeed="max" arrivalLane="1" arrivalPos="max">
        <route edges="E0 E1"/>
    </vehicle>
    <vehicle id="car-flow-route-E0_0_0--E4_0_max-3409258604394150170--7266489842092764092--3-0.8" type="actor-car--4238973458400510012" depart="68.24" departLane="0" departPos="0.00" departSpeed="max" arrivalLane="0" arrivalPos="max">
        <route edges="E0 -E4"/>
    </vehicle>
    <vehicle id="car-flow-route--E1_1_0--E4_1_max-248899497872519462--7266489842092764092--1-0.10" type="actor-car--4238973458400510012" depart="70.90" departLane="1" departPos="0.00" departSpeed="max" arrivalLane="1" arrivalPos="max">
        <route edges="-E1 -E4"/>
    </vehicle>
    <vehicle id="car-flow-route-E4_1_0-E1_1_max--2352894271058968195--7266489842092764092--0-0.9" type="actor-car--4238973458400510012" depart="72.15" departLane="1" departPos="0.00" departSpeed="max" arrivalLane="1" arrivalPos="max">
        <route edges="E4 E1"/>
    </vehicle>
    <vehicle id="car-flow-route-E0_0_0-E1_1_max-6371496855813406146--7266489842092764092--2-0.10" type="actor-car--4238973458400510012" depart="72.98" departLane="0" departPos="0.00" departSpeed="max" arrivalLane="1" arrivalPos="max">
        <route edges="E0 E1"/>
    </vehicle>
    <vehicle id="car-flow-route-E0_0_0--E4_0_max-3409258604394150170--7266489842092764092--3-0.9" type="actor-car--4238973458400510012" depart="76.40" departLane="0" departPos="0.00" departSpeed="max" arrivalLane="0" arrivalPos="max">
        <route edges="E0 -E4"/>
    </vehicle>
    <vehicle id="car-flow-route--E1_1_0--E4_1_max-248899497872519462--7266489842092764092--1-0.11" type="actor-car--4238973458400510012" depart="77.87" departLane="1" departPos="0.00" departSpeed="max" arrivalLane="1" arrivalPos="max">
        <route edges="-E1 -E4"/>
    </vehicle>
    <vehicle id="car-flow-route-E4_1_0-E1_1_max--2352894271058968195--7266489842092764092--0-0.10" type="actor-car--4238973458400510012" depart="80.01" departLane="1" departPos="0.00" departSpeed="max" arrivalLane="1" arrivalPos="max">
        <route edges="E4 E1"/>
    </vehicle>
    <vehicle id="car-flow-route-E0_0_0-E1_1_max-6371496855813406146--7266489842092764092--2-0.11" type="actor-car--4238973458400510012" depart="80.24" departLane="0" departPos="0.00" departSpeed="max" arrivalLane="1" arrivalPos="max">
        <route edges="E0 E1"/>
    </vehicle>
    <vehicle id="car-flow-route-E0_0_0--E4_0_max-3409258604394150170--7266489842092764092--3-0.10" type="actor-car--4238973458400510012" depart="84.57" departLane="0" departPos="0.00" departSpeed="max" arrivalLane="0" arrivalPos="max">
        <route edges="E0 -E4"/>
    </vehicle>
    <vehicle id="car-flow-route--E1_1_0--E4_1_max-248899497872519462--7266489842092764092--1-0.12" type="actor-car--4238973458400510012" depart="84.83" departLane="1" departPos="0.00" departSpeed="max" arrivalLane="1" arrivalPos="max">
        <route edges="-E1 -E4"/>
    </vehicle>
    <vehicle id="car-flow-route-E0_0_0-E1_1_max-6371496855813406146--7266489842092764092--2-0.12" type="actor-car--4238973458400510012" depart="87.49" departLane="0" departPos="0.00" departSpeed="max" arrivalLane="1" arrivalPos="max">
        <route edges="E0 E1"/>
    </vehicle>
    <vehicle id="car-flow-route-E4_1_0-E1_1_max--2352894271058968195--7266489842092764092--0-0.11" type="actor-car--4238973458400510012" depart="87.88" departLane="1" departPos="0.00" departSpeed="max" arrivalLane="1" arrivalPos="max">
        <route edges="E4 E1"/>
    </vehicle>
    <vehicle id="car-flow-route--E1_1_0--E4_1_max-248899497872519462--7266489842092764092--1-0.13" type="actor-car--4238973458400510012" depart="91.80" departLane="1" departPos="0.00" departSpeed="max" arrivalLane="1" arrivalPos="max">
        <route edges="-E1 -E4"/>
    </vehicle>
    <vehicle id="car-flow-route-E0_0_0--E4_0_max-3409258604394150170--7266489842092764092--3-0.11" type="actor-car--4238973458400510012" depart="92.73" departLane="0" departPos="0.00" departSpeed="max" arrivalLane="0" arrivalPos="max">
        <route edges="E0 -E4"/>
    </vehicle>
    <vehicle id="car-flow-route-E0_0_0-E1_1_max-6371496855813406146--7266489842092764092--2-0.13" type="actor-car--4238973458400510012" depart="94.74" departLane="0" departPos="0.00" departSpeed="max" arrivalLane="1" arrivalPos="max">
        <route edges="E0 E1"/>
    </vehicle>
    <vehicle id="car-flow-route-E4_1_0-E1_1_max--2352894271058968195--7266489842092764092--0-0.12" type="actor-car--4238973458400510012" depart="95.74" departLane="1" departPos="0.00" departSpeed="max" arrivalLane="1" arrivalPos="max">
        <route edges="E4 E1"/>
    </vehicle>
    <vehicle id="car-flow-route--E1_1_0--E4_1_max-248899497872519462--7266489842092764092--1-0.14" type="actor-car--4238973458400510012" depart="98.77" departLane="1" departPos="0.00" departSpeed="max" arrivalLane="1" arrivalPos="max">
        <route edges="-E1 -E4"/>
    </vehicle>
    <vehicle id="car-flow-route-E0_0_0--E4_0_max-3409258604394150170--7266489842092764092--3-0.12" type="actor-car--4238973458400510012" depart="100.90" departLane="0" departPos="0.00" departSpeed="max" arrivalLane="0" arrivalPos="max">
        <route edges="E0 -E4"/>
    </vehicle>
    <vehicle id="car-flow-route-E0_0_0-E1_1_max-6371496855813406146--7266489842092764092--2-0.14" type="actor-car--4238973458400510012" depart="101.99" departLane="0" departPos="0.00" departSpeed="max" arrivalLane="1" arrivalPos="max">
        <route edges="E0 E1"/>
    </vehicle>
    <vehicle id="car-flow-route-E4_1_0-E1_1_max--2352894271058968195--7266489842092764092--0-0.13" type="actor-car--4238973458400510012" depart="103.60" departLane="1" departPos="0.00" departSpeed="max" arrivalLane="1" arrivalPos="max">
        <route edges="E4 E1"/>
    </vehicle>
    <vehicle id="car-flow-route--E1_1_0--E4_1_max-248899497872519462--7266489842092764092--1-0.15" type="actor-car--4238973458400510012" depart="105.74" departLane="1" departPos="0.00" departSpeed="max" arrivalLane="1" arrivalPos="max">
        <route edges="-E1 -E4"/>
    </vehicle>
    <vehicle id="car-flow-route-E0_0_0--E4_0_max-3409258604394150170--7266489842092764092--3-0.13" type="actor-car--4238973458400510012" depart="109.07" departLane="0" departPos="0.00" departSpeed="max" arrivalLane="0" arrivalPos="max">
        <route edges="E0 -E4"/>
    </vehicle>
    <vehicle id="car-flow-route-E0_0_0-E1_1_max-6371496855813406146--7266489842092764092--2-0.15" type="actor-car--4238973458400510012" depart="109.24" departLane="0" departPos="0.00" departSpeed="max" arrivalLane="1" arrivalPos="max">
        <route edges="E0 E1"/>
    </vehicle>
    <vehicle id="car-flow-route-E4_1_0-E1_1_max--2352894271058968195--7266489842092764092--0-0.14" type="actor-car--4238973458400510012" depart="111.47" departLane="1" departPos="0.00" departSpeed="max" arrivalLane="1" arrivalPos="max">
        <route edges="E4 E1"/>
    </vehicle>
    <vehicle id="car-flow-route--E1_1_0--E4_1_max-248899497872519462--7266489842092764092--1-0.16" type="actor-car--4238973458400510012" depart="112.70" departLane="1" departPos="0.00" departSpeed="max" arrivalLane="1" arrivalPos="max">
        <route edges="-E1 -E4"/>
    </vehicle>
    <vehicle id="car-flow-route-E0_0_0-E1_1_max-6371496855813406146--7266489842092764092--2-0.16" type="actor-car--4238973458400510012" depart="116.50" departLane="0" departPos="0.00" departSpeed="max" arrivalLane="1" arrivalPos="max">
        <route edges="E0 E1"/>
    </vehicle>
    <vehicle id="car-flow-route-E0_0_0--E4_0_max-3409258604394150170--7266489842092764092--3-0.14" type="actor-car--4238973458400510012" depart="117.23" departLane="0" departPos="0.00" departSpeed="max" arrivalLane="0" arrivalPos="max">
        <route edges="E0 -E4"/>
    </vehicle>
    <vehicle id="car-flow-route-E4_1_0-E1_1_max--2352894271058968195--7266489842092764092--0-0.15" type="actor-car--4238973458400510012" depart="119.33" departLane="1" departPos="0.00" departSpeed="max" arrivalLane="1" arrivalPos="max">
        <route edges="E4 E1"/>
    </vehicle>
    <vehicle id="car-flow-route--E1_1_0--E4_1_max-248899497872519462--7266489842092764092--1-0.17" type="actor-car--4238973458400510012" depart="119.67" departLane="1" departPos="0.00" departSpeed="max" arrivalLane="1" arrivalPos="max">
        <route edges="-E1 -E4"/>
    </vehicle>
    <vehicle id="car-flow-route-E0_0_0-E1_1_max-6371496855813406146--7266489842092764092--2-0.17" type="actor-car--4238973458400510012" depart="123.75" departLane="0" departPos="0.00" departSpeed="max" arrivalLane="1" arrivalPos="max">
        <route edges="E0 E1"/>
    </vehicle>
    <vehicle id="car-flow-route-E0_0_0--E4_0_max-3409258604394150170--7266489842092764092--3-0.15" type="actor-car--4238973458400510012" depart="125.40" departLane="0" departPos="0.00" departSpeed="max" arrivalLane="0" arrivalPos="max">
        <route edges="E0 -E4"/>
    </vehicle>
    <vehicle id="car-flow-route--E1_1_0--E4_1_max-248899497872519462--7266489842092764092--1-0.18" type="actor-car--4238973458400510012" depart="126.64" departLane="1" departPos="0.00" departSpeed="max" arrivalLane="1" arrivalPos="max">
        <route edges="-E1 -E4"/>
    </vehicle>
    <vehicle id="car-flow-route-E4_1_0-E1_1_max--2352894271058968195--7266489842092764092--0-0.16" type="actor-car--4238973458400510012" depart="127.20" departLane="1" departPos="0.00" departSpeed="max" arrivalLane="1" arrivalPos="max">
        <route edges="E4 E1"/>
    </vehicle>
    <vehicle id="car-flow-route-E0_0_0-E1_1_max-6371496855813406146--7266489842092764092--2-0.18" type="actor-car--4238973458400510012" depart="131.00" departLane="0" departPos="0.00" departSpeed="max" arrivalLane="1" arrivalPos="max">
        <route edges="E0 E1"/>
    </vehicle>
    <vehicle id="car-flow-route-E0_0_0--E4_0_max-3409258604394150170--7266489842092764092--3-0.16" type="actor-car--4238973458400510012" depart="133.56" departLane="0" departPos="0.00" departSpeed="max" arrivalLane="0" arrivalPos="max">
        <route edges="E0 -E4"/>
    </vehicle>
    <vehicle id="car-flow-route--E1_1_0--E4_1_max-248899497872519462--7266489842092764092--1-0.19" type="actor-car--4238973458400510012" depart="133.60" departLane="1" departPos="0.00" departSpeed="max" arrivalLane="1" arrivalPos="max">
        <route edges="-E1 -E4"/>
    </vehicle>
    <vehicle id="car-flow-route-E4_1_0-E1_1_max--2352894271058968195--7266489842092764092--0-0.17" type="actor-car--4238973458400510012" depart="135.06" departLane="1" departPos="0.00" departSpeed="max" arrivalLane="1" arrivalPos="max">
        <route edges="E4 E1"/>
    </vehicle>
    <vehicle id="car-flow-route-E0_0_0-E1_1_max-6371496855813406146--7266489842092764092--2-0.19" type="actor-car--4238973458400510012" depart="138.25" departLane="0" departPos="0.00" departSpeed="max" arrivalLane="1" arrivalPos="max">
        <route edges="E0 E1"/>
    </vehicle>
    <vehicle id="car-flow-route--E1_1_0--E4_1_max-248899497872519462--7266489842092764092--1-0.20" type="actor-car--4238973458400510012" depart="140.57" departLane="1" departPos="0.00" departSpeed="max" arrivalLane="1" arrivalPos="max">
        <route edges="-E1 -E4"/>
    </vehicle>
    <vehicle id="car-flow-route-E0_0_0--E4_0_max-3409258604394150170--7266489842092764092--3-0.17" type="actor-car--4238973458400510012" depart="141.73" departLane="0" departPos="0.00" departSpeed="max" arrivalLane="0" arrivalPos="max">
        <route edges="E0 -E4"/>
    </vehicle>
    <vehicle id="car-flow-route-E4_1_0-E1_1_max--2352894271058968195--7266489842092764092--0-0.18" type="actor-car--4238973458400510012" depart="142.92" departLane="1" departPos="0.00" departSpeed="max" arrivalLane="1" arrivalPos="max">
        <route edges="E4 E1"/>
    </vehicle>
    <vehicle id="car-flow-route-E0_0_0-E1_1_max-6371496855813406146--7266489842092764092--2-0.20" type="actor-car--4238973458400510012" depart="145.50" departLane="0" departPos="0.00" departSpeed="max" arrivalLane="1" arrivalPos="max">
        <route edges="E0 E1"/>
    </vehicle>
    <vehicle id="car-flow-route--E1_1_0--E4_1_max-248899497872519462--7266489842092764092--1-0.21" type="actor-car--4238973458400510012" depart="147.54" departLane="1" departPos="0.00" departSpeed="max" arrivalLane="1" arrivalPos="max">
        <route edges="-E1 -E4"/>
    </vehicle>
    <vehicle id="car-flow-route-E0_0_0--E4_0_max-3409258604394150170--7266489842092764092--3-0.18" type="actor-car--4238973458400510012" depart="149.90" departLane="0" departPos="0.00" departSpeed="max" arrivalLane="0" arrivalPos="max">
        <route edges="E0 -E4"/>
    </vehicle>
    <vehicle id="car-flow-route-E4_1_0-E1_1_max--2352894271058968195--7266489842092764092--0-0.19" type="actor-car--4238973458400510012" depart="150.79" departLane="1" departPos="0.00" departSpeed="max" arrivalLane="1" arrivalPos="max">
        <route edges="E4 E1"/>
    </vehicle>
    <vehicle id="car-flow-route-E0_0_0-E1_1_max-6371496855813406146--7266489842092764092--2-0.21" type="actor-car--4238973458400510012" depart="152.76" departLane="0" departPos="0.00" departSpeed="max" arrivalLane="1" arrivalPos="max">
        <route edges="E0 E1"/>
    </vehicle>
    <vehicle id="car-flow-route--E1_1_0--E4_1_max-248899497872519462--7266489842092764092--1-0.22" type="actor-car--4238973458400510012" depart="154.50" departLane="1" departPos="0.00" departSpeed="max" arrivalLane="1" arrivalPos="max">
        <route edges="-E1 -E4"/>
    </vehicle>
    <vehicle id="car-flow-route-E0_0_0--E4_0_max-3409258604394150170--7266489842092764092--3-0.19" type="actor-car--4238973458400510012" depart="158.06" departLane="0" departPos="0.00" departSpeed="max" arrivalLane="0" arrivalPos="max">
        <route edges="E0 -E4"/>
    </vehicle>
    <vehicle id="car-flow-route-E4_1_0-E1_1_max--2352894271058968195--7266489842092764092--0-0.20" type="actor-car--4238973458400510012" depart="158.65" departLane="1" departPos="0.00" departSpeed="max" arrivalLane="1" arrivalPos="max">
        <route edges="E4 E1"/>
    </vehicle>
    <vehicle id="car-flow-route-E0_0_0-E1_1_max-6371496855813406146--7266489842092764092--2-0.22" type="actor-car--4238973458400510012" depart="160.01" departLane="0" departPos="0.00" departSpeed="max" arrivalLane="1" arrivalPos="max">
        <route edges="E0 E1"/>
    </vehicle>
    <vehicle id="car-flow-route--E1_1_0--E4_1_max-248899497872519462--7266489842092764092--1-0.23" type="actor-car--4238973458400510012" depart="161.47" departLane="1" departPos="0.00" departSpeed="max" arrivalLane="1" arrivalPos="max">
        <route edges="-E1 -E4"/>
    </vehicle>
    <vehicle id="car-flow-route-E0_0_0--E4_0_max-3409258604394150170--7266489842092764092--3-0.20" type="actor-car--4238973458400510012" depart="166.23" departLane="0" departPos="0.00" departSpeed="max" arrivalLane="0" arrivalPos="max">
        <route edges="E0 -E4"/>
    </vehicle>
    <vehicle id="car-flow-route-E4_1_0-E1_1_max--2352894271058968195--7266489842092764092--0-0.21" type="actor-car--4238973458400510012" depart="166.52" departLane="1" departPos="0.00" departSpeed="max" arrivalLane="1" arrivalPos="max">
        <route edges="E4 E1"/>
    </vehicle>
    <vehicle id="car-flow-route-E0_0_0-E1_1_max-6371496855813406146--7266489842092764092--2-0.23" type="actor-car--4238973458400510012" depart="167.26" departLane="0" departPos="0.00" departSpeed="max" arrivalLane="1" arrivalPos="max">
        <route edges="E0 E1"/>
    </vehicle>
    <vehicle id="car-flow-route--E1_1_0--E4_1_max-248899497872519462--7266489842092764092--1-0.24" type="actor-car--4238973458400510012" depart="168.44" departLane="1" departPos="0.00" departSpeed="max" arrivalLane="1" arrivalPos="max">
        <route edges="-E1 -E4"/>
    </vehicle>
    <vehicle id="car-flow-route-E4_1_0-E1_1_max--2352894271058968195--7266489842092764092--0-0.22" type="actor-car--4238973458400510012" depart="174.38" departLane="1" departPos="0.00" departSpeed="max" arrivalLane="1" arrivalPos="max">
        <route edges="E4 E1"/>
    </vehicle>
    <vehicle id="car-flow-route-E0_0_0--E4_0_max-3409258604394150170--7266489842092764092--3-0.21" type="actor-car--4238973458400510012" depart="174.39" departLane="0" departPos="0.00" departSpeed="max" arrivalLane="0" arrivalPos="max">
        <route edges="E0 -E4"/>
    </vehicle>
    <vehicle id="car-flow-route-E0_0_0-E1_1_max-6371496855813406146--7266489842092764092--2-0.24" type="actor-car--4238973458400510012" depart="174.51" departLane="0" departPos="0.00" departSpeed="max" arrivalLane="1" arrivalPos="max">
        <route edges="E0 E1"/>
    </vehicle>
    <vehicle id="car-flow-route--E1_1_0--E4_1_max-248899497872519462--7266489842092764092--1-0.25" type="actor-car--4238973458400510012" depart="175.41" departLane="1" departPos="0.00" departSpeed="max" arrivalLane="1" arrivalPos="max">
        <route edges="-E1 -E4"/>
    </vehicle>
    <vehicle id="car-flow-route-E0_0_0-E1_1_max-6371496855813406146--7266489842092764092--2-0.25" type="actor-car--4238973458400510012" depart="181.76" departLane="0" departPos="0.00" departSpeed="max" arrivalLane="1" arrivalPos="max">
        <route edges="E0 E1"/>
    </vehicle>
    <vehicle id="car-flow-route-E4_1_0-E1_1_max--2352894271058968195--7266489842092764092--0-0.23" type="actor-car--4238973458400510012" depart="182.24" departLane="1" departPos="0.00" departSpeed="max" arrivalLane="1" arrivalPos="max">
        <route edges="E4 E1"/>
    </vehicle>
    <vehicle id="car-flow-route--E1_1_0--E4_1_max-248899497872519462--7266489842092764092--1-0.26" type="actor-car--4238973458400510012" depart="182.37" departLane="1" departPos="0.00" departSpeed="max" arrivalLane="1" arrivalPos="max">
        <route edges="-E1 -E4"/>
    </vehicle>
    <vehicle id="car-flow-route-E0_0_0--E4_0_max-3409258604394150170--7266489842092764092--3-0.22" type="actor-car--4238973458400510012" depart="182.56" departLane="0" departPos="0.00" departSpeed="max" arrivalLane="0" arrivalPos="max">
        <route edges="E0 -E4"/>
    </vehicle>
    <vehicle id="car-flow-route-E0_0_0-E1_1_max-6371496855813406146--7266489842092764092--2-0.26" type="actor-car--4238973458400510012" depart="189.02" departLane="0" departPos="0.00" departSpeed="max" arrivalLane="1" arrivalPos="max">
        <route edges="E0 E1"/>
    </vehicle>