<?xml version="1.0" encoding="UTF-8"?>

<!-- generated on 2023-05-28 21:07:39 by Eclipse SUMO duarouter Version 1.16.0
<configuration xmlns:xsi="http://www.w3.org/2001/XMLSchema-instance" xsi:noNamespaceSchemaLocation="http://sumo.dlr.de/xsd/duarouterConfiguration.xsd">

    <input>
        <net-file value="/home/smarts/scenarios/sumo/intersections/1_to_2lane_left_turn_t_agents_1/map.net.xml"/>
        <route-files value="/tmp/tmpxz3kz2md/trips.trips.xml"/>
    </input>

    <output>
        <output-file value="/home/smarts/scenarios/sumo/intersections/1_to_2lane_left_turn_t_agents_1/build/traffic/171.rou.xml"/>
    </output>

    <processing>
        <unsorted-input value="true"/>
        <repair value="true"/>
    </processing>

    <report>
        <error-log value="/root/.smarts/_duarouter_routing/traffic/171.log"/>
        <no-step-log value="true"/>
    </report>

    <random_number>
        <seed value="42"/>
    </random_number>

</configuration>
-->

<routes xmlns:xsi="http://www.w3.org/2001/XMLSchema-instance" xsi:noNamespaceSchemaLocation="http://sumo.dlr.de/xsd/routes_file.xsd">
    <vType id="actor-car--4238973458400510012" minGap="2.50" maxSpeed="55.50" speedFactor="normc(1.00,0.10,0.20,2.00)" vClass="passenger" accel="2.6" decel="4.5" sigma="0.5"/>
    <vehicle id="car-flow-route--E1_0_0--E0_0_max--3949343141680771758--7266489842092764092--4-0.0" type="actor-car--4238973458400510012" depart="1.84" departLane="0" departPos="0.00" departSpeed="max" arrivalLane="0" arrivalPos="max">
        <route edges="-E1 -E0"/>
    </vehicle>
    <vehicle id="car-flow-route-E4_1_0-E1_1_max--2352894271058968195--7266489842092764092--1-0.0" type="actor-car--4238973458400510012" depart="2.29" departLane="1" departPos="0.00" departSpeed="max" arrivalLane="1" arrivalPos="max">
        <route edges="E4 E1"/>
    </vehicle>
    <vehicle id="car-flow-route--E1_0_0--E4_0_max--2345656016055477228--7266489842092764092--2-0.0" type="actor-car--4238973458400510012" depart="2.42" departLane="0" departPos="0.00" departSpeed="max" arrivalLane="0" arrivalPos="max">
        <route edges="-E1 -E4"/>
    </vehicle>
    <vehicle id="car-flow-route-E4_0_0-E1_0_max-5581999185648294116--7266489842092764092--0-0.0" type="actor-car--4238973458400510012" depart="2.54" departLane="0" departPos="0.00" departSpeed="max" arrivalLane="0" arrivalPos="max">
        <route edges="E4 E1"/>
    </vehicle>
    <vehicle id="car-flow-route-E0_0_0--E4_0_max-3409258604394150170--7266489842092764092--3-0.0" type="actor-car--4238973458400510012" depart="2.92" departLane="0" departPos="0.00" departSpeed="max" arrivalLane="0" arrivalPos="max">
        <route edges="E0 -E4"/>
    </vehicle>
    <vehicle id="car-flow-route--E1_0_0--E0_0_max--3949343141680771758--7266489842092764092--4-0.1" type="actor-car--4238973458400510012" depart="8.44" departLane="0" departPos="0.00" departSpeed="max" arrivalLane="0" arrivalPos="max">
        <route edges="-E1 -E0"/>
    </vehicle>
    <vehicle id="car-flow-route-E0_0_0--E4_0_max-3409258604394150170--7266489842092764092--3-0.1" type="actor-car--4238973458400510012" depart="9.43" departLane="0" departPos="0.00" departSpeed="max" arrivalLane="0" arrivalPos="max">
        <route edges="E0 -E4"/>
    </vehicle>
    <vehicle id="car-flow-route--E1_0_0--E4_0_max--2345656016055477228--7266489842092764092--2-0.1" type="actor-car--4238973458400510012" depart="10.05" departLane="0" departPos="0.00" departSpeed="max" arrivalLane="0" arrivalPos="max">
        <route edges="-E1 -E4"/>
    </vehicle>
    <vehicle id="car-flow-route-E4_1_0-E1_1_max--2352894271058968195--7266489842092764092--1-0.1" type="actor-car--4238973458400510012" depart="11.06" departLane="1" departPos="0.00" departSpeed="max" arrivalLane="1" arrivalPos="max">
        <route edges="E4 E1"/>
    </vehicle>
    <vehicle id="car-flow-route-E4_0_0-E1_0_max-5581999185648294116--7266489842092764092--0-0.1" type="actor-car--4238973458400510012" depart="13.36" departLane="0" departPos="0.00" departSpeed="max" arrivalLane="0" arrivalPos="max">
        <route edges="E4 E1"/>
    </vehicle>
    <vehicle id="car-flow-route--E1_0_0--E0_0_max--3949343141680771758--7266489842092764092--4-0.2" type="actor-car--4238973458400510012" depart="15.04" departLane="0" departPos="0.00" departSpeed="max" arrivalLane="0" arrivalPos="max">
        <route edges="-E1 -E0"/>
    </vehicle>
    <vehicle id="car-flow-route-E0_0_0--E4_0_max-3409258604394150170--7266489842092764092--3-0.2" type="actor-car--4238973458400510012" depart="15.93" departLane="0" departPos="0.00" departSpeed="max" arrivalLane="0" arrivalPos="max">
        <route edges="E0 -E4"/>
    </vehicle>
    <vehicle id="car-flow-route--E1_0_0--E4_0_max--2345656016055477228--7266489842092764092--2-0.2" type="actor-car--4238973458400510012" depart="17.67" departLane="0" departPos="0.00" departSpeed="max" arrivalLane="0" arrivalPos="max">
        <route edges="-E1 -E4"/>
    </vehicle>
    <vehicle id="car-flow-route-E4_1_0-E1_1_max--2352894271058968195--7266489842092764092--1-0.2" type="actor-car--4238973458400510012" depart="19.84" departLane="1" departPos="0.00" departSpeed="max" arrivalLane="1" arrivalPos="max">
        <route edges="E4 E1"/>
    </vehicle>
    <vehicle id="car-flow-route--E1_0_0--E0_0_max--3949343141680771758--7266489842092764092--4-0.3" type="actor-car--4238973458400510012" depart="21.64" departLane="0" departPos="0.00" departSpeed="max" arrivalLane="0" arrivalPos="max">
        <route edges="-E1 -E0"/>
    </vehicle>
    <vehicle id="car-flow-route-E0_0_0--E4_0_max-3409258604394150170--7266489842092764092--3-0.3" type="actor-car--4238973458400510012" depart="22.44" departLane="0" departPos="0.00" departSpeed="max" arrivalLane="0" arrivalPos="max">
        <route edges="E0 -E4"/>
    </vehicle>
    <vehicle id="car-flow-route-E4_0_0-E1_0_max-5581999185648294116--7266489842092764092--0-0.2" type="actor-car--4238973458400510012" depart="24.19" departLane="0" departPos="0.00" departSpeed="max" arrivalLane="0" arrivalPos="max">
        <route edges="E4 E1"/>
    </vehicle>
    <vehicle id="car-flow-route--E1_0_0--E4_0_max--2345656016055477228--7266489842092764092--2-0.3" type="actor-car--4238973458400510012" depart="25.29" departLane="0" departPos="0.00" departSpeed="max" arrivalLane="0" arrivalPos="max">
        <route edges="-E1 -E4"/>
    </vehicle>
    <vehicle id="car-flow-route--E1_0_0--E0_0_max--3949343141680771758--7266489842092764092--4-0.4" type="actor-car--4238973458400510012" depart="28.24" departLane="0" departPos="0.00" departSpeed="max" arrivalLane="0" arrivalPos="max">
        <route edges="-E1 -E0"/>
    </vehicle>
    <vehicle id="car-flow-route-E4_1_0-E1_1_max--2352894271058968195--7266489842092764092--1-0.3" type="actor-car--4238973458400510012" depart="28.61" departLane="1" departPos="0.00" departSpeed="max" arrivalLane="1" arrivalPos="max">
        <route edges="E4 E1"/>
    </vehicle>
    <vehicle id="car-flow-route-E0_0_0--E4_0_max-3409258604394150170--7266489842092764092--3-0.4" type="actor-car--4238973458400510012" depart="28.94" departLane="0" departPos="0.00" departSpeed="max" arrivalLane="0" arrivalPos="max">
        <route edges="E0 -E4"/>
    </vehicle>
    <vehicle id="car-flow-route--E1_0_0--E4_0_max--2345656016055477228--7266489842092764092--2-0.4" type="actor-car--4238973458400510012" depart="32.91" departLane="0" departPos="0.00" departSpeed="max" arrivalLane="0" arrivalPos="max">
        <route edges="-E1 -E4"/>
    </vehicle>
    <vehicle id="car-flow-route--E1_0_0--E0_0_max--3949343141680771758--7266489842092764092--4-0.5" type="actor-car--4238973458400510012" depart="34.84" departLane="0" departPos="0.00" departSpeed="max" arrivalLane="0" arrivalPos="max">
        <route edges="-E1 -E0"/>
    </vehicle>
    <vehicle id="car-flow-route-E4_0_0-E1_0_max-5581999185648294116--7266489842092764092--0-0.3" type="actor-car--4238973458400510012" depart="35.02" departLane="0" departPos="0.00" departSpeed="max" arrivalLane="0" arrivalPos="max">
        <route edges="E4 E1"/>
    </vehicle>
    <vehicle id="car-flow-route-E0_0_0--E4_0_max-3409258604394150170--7266489842092764092--3-0.5" type="actor-car--4238973458400510012" depart="35.44" departLane="0" departPos="0.00" departSpeed="max" arrivalLane="0" arrivalPos="max">
        <route edges="E0 -E4"/>
    </vehicle>
    <vehicle id="car-flow-route-E4_1_0-E1_1_max--2352894271058968195--7266489842092764092--1-0.4" type="actor-car--4238973458400510012" depart="37.39" departLane="1" departPos="0.00" departSpeed="max" arrivalLane="1" arrivalPos="max">
        <route edges="E4 E1"/>
    </vehicle>
    <vehicle id="car-flow-route--E1_0_0--E4_0_max--2345656016055477228--7266489842092764092--2-0.5" type="actor-car--4238973458400510012" depart="40.54" departLane="0" departPos="0.00" departSpeed="max" arrivalLane="0" arrivalPos="max">
        <route edges="-E1 -E4"/>
    </vehicle>
    <vehicle id="car-flow-route--E1_0_0--E0_0_max--3949343141680771758--7266489842092764092--4-0.6" type="actor-car--4238973458400510012" depart="41.44" departLane="0" departPos="0.00" departSpeed="max" arrivalLane="0" arrivalPos="max">
        <route edges="-E1 -E0"/>
    </vehicle>
    <vehicle id="car-flow-route-E0_0_0--E4_0_max-3409258604394150170--7266489842092764092--3-0.6" type="actor-car--4238973458400510012" depart="41.95" departLane="0" departPos="0.00" departSpeed="max" arrivalLane="0" arrivalPos="max">
        <route edges="E0 -E4"/>
    </vehicle>
    <vehicle id="car-flow-route-E4_0_0-E1_0_max-5581999185648294116--7266489842092764092--0-0.4" type="actor-car--4238973458400510012" depart="45.85" departLane="0" departPos="0.00" departSpeed="max" arrivalLane="0" arrivalPos="max">
        <route edges="E4 E1"/>
    </vehicle>
    <vehicle id="car-flow-route-E4_1_0-E1_1_max--2352894271058968195--7266489842092764092--1-0.5" type="actor-car--4238973458400510012" depart="46.16" departLane="1" departPos="0.00" departSpeed="max" arrivalLane="1" arrivalPos="max">
        <route edges="E4 E1"/>
    </vehicle>
    <vehicle id="car-flow-route--E1_0_0--E0_0_max--3949343141680771758--7266489842092764092--4-0.7" type="actor-car--4238973458400510012" depart="48.03" departLane="0" departPos="0.00" departSpeed="max" arrivalLane="0" arrivalPos="max">
        <route edges="-E1 -E0"/>
    </vehicle>
    <vehicle id="car-flow-route--E1_0_0--E4_0_max--2345656016055477228--7266489842092764092--2-0.6" type="actor-car--4238973458400510012" depart="48.16" departLane="0" departPos="0.00" departSpeed="max" arrivalLane="0" arrivalPos="max">
        <route edges="-E1 -E4"/>
    </vehicle>
    <vehicle id="car-flow-route-E0_0_0--E4_0_max-3409258604394150170--7266489842092764092--3-0.7" type="actor-car--4238973458400510012" depart="48.45" departLane="0" departPos="0.00" departSpeed="max" arrivalLane="0" arrivalPos="max">
        <route edges="E0 -E4"/>
    </vehicle>
    <vehicle id="car-flow-route--E1_0_0--E0_0_max--3949343141680771758--7266489842092764092--4-0.8" type="actor-car--4238973458400510012" depart="54.63" departLane="0" departPos="0.00" departSpeed="max" arrivalLane="0" arrivalPos="max">
        <route edges="-E1 -E0"/>
    </vehicle>
    <vehicle id="car-flow-route-E4_1_0-E1_1_max--2352894271058968195--7266489842092764092--1-0.6" type="actor-car--4238973458400510012" depart="54.94" departLane="1" departPos="0.00" departSpeed="max" arrivalLane="1" arrivalPos="max">
        <route edges="E4 E1"/>
    </vehicle>
    <vehicle id="car-flow-route-E0_0_0--E4_0_max-3409258604394150170--7266489842092764092--3-0.8" type="actor-car--4238973458400510012" depart="54.96" departLane="0" departPos="0.00" departSpeed="max" arrivalLane="0" arrivalPos="max">
        <route edges="E0 -E4"/>
    </vehicle>
    <vehicle id="car-flow-route--E1_0_0--E4_0_max--2345656016055477228--7266489842092764092--2-0.7" type="actor-car--4238973458400510012" depart="55.78" departLane="0" departPos="0.00" departSpeed="max" arrivalLane="0" arrivalPos="max">
        <route edges="-E1 -E4"/>
    </vehicle>
    <vehicle id="car-flow-route-E4_0_0-E1_0_max-5581999185648294116--7266489842092764092--0-0.5" type="actor-car--4238973458400510012" depart="56.68" departLane="0" departPos="0.00" departSpeed="max" arrivalLane="0" arrivalPos="max">
        <route edges="E4 E1"/>
    </vehicle>
    <vehicle id="car-flow-route--E1_0_0--E0_0_max--3949343141680771758--7266489842092764092--4-0.9" type="actor-car--4238973458400510012" depart="61.23" departLane="0" departPos="0.00" departSpeed="max" arrivalLane="0" arrivalPos="max">
        <route edges="-E1 -E0"/>
    </vehicle>
    <vehicle id="car-flow-route-E0_0_0--E4_0_max-3409258604394150170--7266489842092764092--3-0.9" type="actor-car--4238973458400510012" depart="61.46" departLane="0" departPos="0.00" departSpeed="max" arrivalLane="0" arrivalPos="max">
        <route edges="E0 -E4"/>
    </vehicle>
    <vehicle id="car-flow-route--E1_0_0--E4_0_max--2345656016055477228--7266489842092764092--2-0.8" type="actor-car--4238973458400510012" depart="63.41" departLane="0" departPos="0.00" departSpeed="max" arrivalLane="0" arrivalPos="max">
        <route edges="-E1 -E4"/>
    </vehicle>
    <vehicle id="car-flow-route-E4_1_0-E1_1_max--2352894271058968195--7266489842092764092--1-0.7" type="actor-car--4238973458400510012" depart="63.71" departLane="1" departPos="0.00" departSpeed="max" arrivalLane="1" arrivalPos="max">
        <route edges="E4 E1"/>
    </vehicle>
    <vehicle id="car-flow-route-E4_0_0-E1_0_max-5581999185648294116--7266489842092764092--0-0.6" type="actor-car--4238973458400510012" depart="67.50" departLane="0" departPos="0.00" departSpeed="max" arrivalLane="0" arrivalPos="max">
        <route edges="E4 E1"/>
    </vehicle>
    <vehicle id="car-flow-route--E1_0_0--E0_0_max--3949343141680771758--7266489842092764092--4-0.10" type="actor-car--4238973458400510012" depart="67.83" departLane="0" departPos="0.00" departSpeed="max" arrivalLane="0" arrivalPos="max">
        <route edges="-E1 -E0"/>
    </vehicle>
    <vehicle id="car-flow-route-E0_0_0--E4_0_max-3409258604394150170--7266489842092764092--3-0.10" type="actor-car--4238973458400510012" depart="67.96" departLane="0" departPos="0.00" departSpeed="max" arrivalLane="0" arrivalPos="max">
        <route edges="E0 -E4"/>
    </vehicle>
    <vehicle id="car-flow-route--E1_0_0--E4_0_max--2345656016055477228--7266489842092764092--2-0.9" type="actor-car--4238973458400510012" depart="71.03" departLane="0" departPos="0.00" departSpeed="max" arrivalLane="0" arrivalPos="max">
        <route edges="-E1 -E4"/>
    </vehicle>
    <vehicle id="car-flow-route-E4_1_0-E1_1_max--2352894271058968195--7266489842092764092--1-0.8" type="actor-car--4238973458400510012" depart="72.49" departLane="1" departPos="0.00" departSpeed="max" arrivalLane="1" arrivalPos="max">
        <route edges="E4 E1"/>
    </vehicle>
    <vehicle id="car-flow-route--E1_0_0--E0_0_max--3949343141680771758--7266489842092764092--4-0.11" type="actor-car--4238973458400510012" depart="74.43" departLane="0" departPos="0.00" departSpeed="max" arrivalLane="0" arrivalPos="max">
        <route edges="-E1 -E0"/>
    </vehicle>
    <vehicle id="car-flow-route-E0_0_0--E4_0_max-3409258604394150170--7266489842092764092--3-0.11" type="actor-car--4238973458400510012" depart="74.47" departLane="0" departPos="0.00" departSpeed="max" arrivalLane="0" arrivalPos="max">
        <route edges="E0 -E4"/>
    </vehicle>
    <vehicle id="car-flow-route-E4_0_0-E1_0_max-5581999185648294116--7266489842092764092--0-0.7" type="actor-car--4238973458400510012" depart="78.33" departLane="0" departPos="0.00" departSpeed="max" arrivalLane="0" arrivalPos="max">
        <route edges="E4 E1"/>
    </vehicle>
    <vehicle id="car-flow-route--E1_0_0--E4_0_max--2345656016055477228--7266489842092764092--2-0.10" type="actor-car--4238973458400510012" depart="78.65" departLane="0" departPos="0.00" departSpeed="max" arrivalLane="0" arrivalPos="max">
        <route edges="-E1 -E4"/>
    </vehicle>
    <vehicle id="car-flow-route-E0_0_0--E4_0_max-3409258604394150170--7266489842092764092--3-0.12" type="actor-car--4238973458400510012" depart="80.97" departLane="0" departPos="0.00" departSpeed="max" arrivalLane="0" arrivalPos="max">
        <route edges="E0 -E4"/>
    </vehicle>
    <vehicle id="car-flow-route--E1_0_0--E0_0_max--3949343141680771758--7266489842092764092--4-0.12" type="actor-car--4238973458400510012" depart="81.03" departLane="0" departPos="0.00" departSpeed="max" arrivalLane="0" arrivalPos="max">
        <route edges="-E1 -E0"/>
    </vehicle>
    <vehicle id="car-flow-route-E4_1_0-E1_1_max--2352894271058968195--7266489842092764092--1-0.9" type="actor-car--4238973458400510012" depart="81.26" departLane="1" departPos="0.00" departSpeed="max" arrivalLane="1" arrivalPos="max">
        <route edges="E4 E1"/>
    </vehicle>
    <vehicle id="car-flow-route--E1_0_0--E4_0_max--2345656016055477228--7266489842092764092--2-0.11" type="actor-car--4238973458400510012" depart="86.28" departLane="0" departPos="0.00" departSpeed="max" arrivalLane="0" arrivalPos="max">
        <route edges="-E1 -E4"/>
    </vehicle>
    <vehicle id="car-flow-route-E0_0_0--E4_0_max-3409258604394150170--7266489842092764092--3-0.13" type="actor-car--4238973458400510012" depart="87.48" departLane="0" departPos="0.00" departSpeed="max" arrivalLane="0" arrivalPos="max">
        <route edges="E0 -E4"/>
    </vehicle>
    <vehicle id="car-flow-route--E1_0_0--E0_0_max--3949343141680771758--7266489842092764092--4-0.13" type="actor-car--4238973458400510012" depart="87.63" departLane="0" departPos="0.00" departSpeed="max" arrivalLane="0" arrivalPos="max">
        <route edges="-E1 -E0"/>
    </vehicle>
    <vehicle id="car-flow-route-E4_0_0-E1_0_max-5581999185648294116--7266489842092764092--0-0.8" type="actor-car--4238973458400510012" depart="89.16" departLane="0" departPos="0.00" departSpeed="max" arrivalLane="0" arrivalPos="max">
        <route edges="E4 E1"/>
    </vehicle>
    <vehicle id="car-flow-route-E4_1_0-E1_1_max--2352894271058968195--7266489842092764092--1-0.10" type="actor-car--4238973458400510012" depart="90.04" departLane="1" departPos="0.00" departSpeed="max" arrivalLane="1" arrivalPos="max">
        <route edges="E4 E1"/>
    </vehicle>
    <vehicle id="car-flow-route--E1_0_0--E4_0_max--2345656016055477228--7266489842092764092--2-0.12" type="actor-car--4238973458400510012" depart="93.90" departLane="0" departPos="0.00" departSpeed="max" arrivalLane="0" arrivalPos="max">
        <route edges="-E1 -E4"/>
    </vehicle>
    <vehicle id="car-flow-route-E0_0_0--E4_0_max-3409258604394150170--7266489842092764092--3-0.14" type="actor-car--4238973458400510012" depart="93.98" departLane="0" departPos="0.00" departSpeed="max" arrivalLane="0" arrivalPos="max">
        <route edges="E0 -E4"/>
    </vehicle>
    <vehicle id="car-flow-route--E1_0_0--E0_0_max--3949343141680771758--7266489842092764092--4-0.14" type="actor-car--4238973458400510012" depart="94.23" departLane="0" departPos="0.00" departSpeed="max" arrivalLane="0" arrivalPos="max">
        <route edges="-E1 -E0"/>
    </vehicle>
    <vehicle id="car-flow-route-E4_1_0-E1_1_max--2352894271058968195--7266489842092764092--1-0.11" type="actor-car--4238973458400510012" depart="98.81" departLane="1" departPos="0.00" departSpeed="max" arrivalLane="1" arrivalPos="max">
        <route edges="E4 E1"/>
    </vehicle>
    <vehicle id="car-flow-route-E4_0_0-E1_0_max-5581999185648294116--7266489842092764092--0-0.9" type="actor-car--4238973458400510012" depart="99.99" departLane="0" departPos="0.00" departSpeed="max" arrivalLane="0" arrivalPos="max">
        <route edges="E4 E1"/>
    </vehicle>
    <vehicle id="car-flow-route-E0_0_0--E4_0_max-3409258604394150170--7266489842092764092--3-0.15" type="actor-car--4238973458400510012" depart="100.48" departLane="0" departPos="0.00" departSpeed="max" arrivalLane="0" arrivalPos="max">
        <route edges="E0 -E4"/>
    </vehicle>
    <vehicle id="car-flow-route--E1_0_0--E0_0_max--3949343141680771758--7266489842092764092--4-0.15" type="actor-car--4238973458400510012" depart="100.83" departLane="0" departPos="0.00" departSpeed="max" arrivalLane="0" arrivalPos="max">
        <route edges="-E1 -E0"/>
    </vehicle>
    <vehicle id="car-flow-route--E1_0_0--E4_0_max--2345656016055477228--7266489842092764092--2-0.13" type="actor-car--4238973458400510012" depart="101.52" departLane="0" departPos="0.00" departSpeed="max" arrivalLane="0" arrivalPos="max">
        <route edges="-E1 -E4"/>
    </vehicle>
    <vehicle id="car-flow-route-E0_0_0--E4_0_max-3409258604394150170--7266489842092764092--3-0.16" type="actor-car--4238973458400510012" depart="106.99" departLane="0" departPos="0.00" departSpeed="max" arrivalLane="0" arrivalPos="max">
        <route edges="E0 -E4"/>
    </vehicle>
    <vehicle id="car-flow-route--E1_0_0--E0_0_max--3949343141680771758--7266489842092764092--4-0.16" type="actor-car--4238973458400510012" depart="107.43" departLane="0" departPos="0.00" departSpeed="max" arrivalLane="0" arrivalPos="max">
        <route edges="-E1 -E0"/>
    </vehicle>
    <vehicle id="car-flow-route-E4_1_0-E1_1_max--2352894271058968195--7266489842092764092--1-0.12" type="actor-car--4238973458400510012" depart="107.59" departLane="1" departPos="0.00" departSpeed="max" arrivalLane="1" arrivalPos="max">
        <route edges="E4 E1"/>
    </vehicle>
    <vehicle id="car-flow-route--E1_0_0--E4_0_max--2345656016055477228--7266489842092764092--2-0.14" type="actor-car--4238973458400510012" depart="109.14" departLane="0" departPos="0.00" departSpeed="max" arrivalLane="0" arrivalPos="max">
        <route edges="-E1 -E4"/>
    </vehicle>
    <vehicle id="car-flow-route-E4_0_0-E1_0_max-5581999185648294116--7266489842092764092--0-0.10" type="actor-car--4238973458400510012" depart="110.82" departLane="0" departPos="0.00" departSpeed="max" arrivalLane="0" arrivalPos="max">
        <route edges="E4 E1"/>
    </vehicle>
    <vehicle id="car-flow-route-E0_0_0--E4_0_max-3409258604394150170--7266489842092764092--3-0.17" type="actor-car--4238973458400510012" depart="113.49" departLane="0" departPos="0.00" departSpeed="max" arrivalLane="0" arrivalPos="max">
        <route edges="E0 -E4"/>
    </vehicle>
    <vehicle id="car-flow-route--E1_0_0--E0_0_max--3949343141680771758--7266489842092764092--4-0.17" type="actor-car--4238973458400510012" depart="114.02" departLane="0" departPos="0.00" departSpeed="max" arrivalLane="0" arrivalPos="max">
        <route edges="-E1 -E0"/>
    </vehicle>
    <vehicle id="car-flow-route-E4_1_0-E1_1_max--2352894271058968195--7266489842092764092--1-0.13" type="actor-car--4238973458400510012" depart="116.36" departLane="1" departPos="0.00" departSpeed="max" arrivalLane="1" arrivalPos="max">
        <route edges="E4 E1"/>
    </vehicle>
    <vehicle id="car-flow-route--E1_0_0--E4_0_max--2345656016055477228--7266489842092764092--2-0.15" type="actor-car--4238973458400510012" depart="116.77" departLane="0" departPos="0.00" departSpeed="max" arrivalLane="0" arrivalPos="max">
        <route edges="-E1 -E4"/>
    </vehicle>
    <vehicle id="car-flow-route-E0_0_0--E4_0_max-3409258604394150170--7266489842092764092--3-0.18" type="actor-car--4238973458400510012" depart="120.00" departLane="0" departPos="0.00" departSpeed="max" arrivalLane="0" arrivalPos="max">
        <route edges="E0 -E4"/>
    </vehicle>
    <vehicle id="car-flow-route--E1_0_0--E0_0_max--3949343141680771758--7266489842092764092--4-0.18" type="actor-car--4238973458400510012" depart="120.62" departLane="0" departPos="0.00" departSpeed="max" arrivalLane="0" arrivalPos="max">
        <route edges="-E1 -E0"/>
    </vehicle>
    <vehicle id="car-flow-route-E4_0_0-E1_0_max-5581999185648294116--7266489842092764092--0-0.11" type="actor-car--4238973458400510012" depart="121.64" departLane="0" departPos="0.00" departSpeed="max" arrivalLane="0" arrivalPos="max">
        <route edges="E4 E1"/>
    </vehicle>
    <vehicle id="car-flow-route--E1_0_0--E4_0_max--2345656016055477228--7266489842092764092--2-0.16" type="actor-car--4238973458400510012" depart="124.39" departLane="0" departPos="0.00" departSpeed="max" arrivalLane="0" arrivalPos="max">
        <route edges="-E1 -E4"/>
    </vehicle>
    <vehicle id="car-flow-route-E4_1_0-E1_1_max--2352894271058968195--7266489842092764092--1-0.14" type="actor-car--4238973458400510012" depart="125.14" departLane="1" departPos="0.00" departSpeed="max" arrivalLane="1" arrivalPos="max">
        <route edges="E4 E1"/>
    </vehicle>
    <vehicle id="car-flow-route-E0_0_0--E4_0_max-3409258604394150170--7266489842092764092--3-0.19" type="actor-car--4238973458400510012" depart="126.50" departLane="0" departPos="0.00" departSpeed="max" arrivalLane="0" arrivalPos="max">
        <route edges="E0 -E4"/>
    </vehicle>
    <vehicle id="car-flow-route--E1_0_0--E0_0_max--3949343141680771758--7266489842092764092--4-0.19" type="actor-car--4238973458400510012" depart="127.22" departLane="0" departPos="0.00" departSpeed="max" arrivalLane="0" arrivalPos="max">
        <route edges="-E1 -E0"/>
    </vehicle>
    <vehicle id="car-flow-route--E1_0_0--E4_0_max--2345656016055477228--7266489842092764092--2-0.17" type="actor-car--4238973458400510012" depart="132.01" departLane="0" departPos="0.00" departSpeed="max" arrivalLane="0" arrivalPos="max">
        <route edges="-E1 -E4"/>
    </vehicle>
    <vehicle id="car-flow-route-E4_0_0-E1_0_max-5581999185648294116--7266489842092764092--0-0.12" type="actor-car--4238973458400510012" depart="132.47" departLane="0" departPos="0.00" departSpeed="max" arrivalLane="0" arrivalPos="max">
        <route edges="E4 E1"/>
    </vehicle>
    <vehicle id="car-flow-route-E0_0_0--E4_0_max-3409258604394150170--7266489842092764092--3-0.20" type="actor-car--4238973458400510012" depart="133.00" departLane="0" departPos="0.00" departSpeed="max" arrivalLane="0" arrivalPos="max">
        <route edges="E0 -E4"/>
    </vehicle>
    <vehicle id="car-flow-route--E1_0_0--E0_0_max--3949343141680771758--7266489842092764092--4-0.20" type="actor-car--4238973458400510012" depart="133.82" departLane="0" departPos="0.00" departSpeed="max" arrivalLane="0" arrivalPos="max">
        <route edges="-E1 -E0"/>
    </vehicle>
    <vehicle id="car-flow-route-E4_1_0-E1_1_max--2352894271058968195--7266489842092764092--1-0.15" type="actor-car--4238973458400510012" depart="133.91" departLane="1" departPos="0.00" departSpeed="max" arrivalLane="1" arrivalPos="max">
        <route edges="E4 E1"/>
    </vehicle>
    <vehicle id="car-flow-route-E0_0_0--E4_0_max-3409258604394150170--7266489842092764092--3-0.21" type="actor-car--4238973458400510012" depart="139.51" departLane="0" departPos="0.00" departSpeed="max" arrivalLane="0" arrivalPos="max">
        <route edges="E0 -E4"/>
    </vehicle>
    <vehicle id="car-flow-route--E1_0_0--E4_0_max--2345656016055477228--7266489842092764092--2-0.18" type="actor-car--4238973458400510012" depart="139.64" departLane="0" departPos="0.00" departSpeed="max" arrivalLane="0" arrivalPos="max">
        <route edges="-E1 -E4"/>
    </vehicle>
    <vehicle id="car-flow-route--E1_0_0--E0_0_max--3949343141680771758--7266489842092764092--4-0.21" type="actor-car--4238973458400510012" depart="140.42" departLane="0" departPos="0.00" departSpeed="max" arrivalLane="0" arrivalPos="max">
        <route edges="-E1 -E0"/>
    </vehicle>
    <vehicle id="car-flow-route-E4_1_0-E1_1_max--2352894271058968195--7266489842092764092--1-0.16" type="actor-car--4238973458400510012" depart="142.69" departLane="1" departPos="0.00" departSpeed="max" arrivalLane="1" arrivalPos="max">
        <route edges="E4 E1"/>
    </vehicle>
    <vehicle id="car-flow-route-E4_0_0-E1_0_max-5581999185648294116--7266489842092764092--0-0.13" type="actor-car--4238973458400510012" depart="143.30" departLane="0" departPos="0.00" departSpeed="max" arrivalLane="0" arrivalPos="max">
        <route edges="E4 E1"/>
    </vehicle>
    <vehicle id="car-flow-route-E0_0_0--E4_0_max-3409258604394150170--7266489842092764092--3-0.22" type="actor-car--4238973458400510012" depart="146.01" departLane="0" departPos="0.00" departSpeed="max" arrivalLane="0" arrivalPos="max">
        <route edges="E0 -E4"/>
    </vehicle>
    <vehicle id="car-flow-route--E1_0_0--E0_0_max--3949343141680771758--7266489842092764092--4-0.22" type="actor-car--4238973458400510012" depart="147.02" departLane="0" departPos="0.00" departSpeed="max" arrivalLane="0" arrivalPos="max">
        <route edges="-E1 -E0"/>
    </vehicle>
    <vehicle id="car-flow-route--E1_0_0--E4_0_max--2345656016055477228--7266489842092764092--2-0.19" type="actor-car--4238973458400510012" depart="147.26" departLane="0" departPos="0.00" departSpeed="max" arrivalLane="0" arrivalPos="max">
        <route edges="-E1 -E4"/>
    </vehicle>
    <vehicle id="car-flow-route-E4_1_0-E1_1_max--2352894271058968195--7266489842092764092--1-0.17" type="actor-car--4238973458400510012" depart="151.46" departLane="1" departPos="0.00" departSpeed="max" arrivalLane="1" arrivalPos="max">
        <route edges="E4 E1"/>
    </vehicle>
    <vehicle id="car-flow-route-E0_0_0--E4_0_max-3409258604394150170--7266489842092764092--3-0.23" type="actor-car--4238973458400510012" depart="152.52" departLane="0" departPos="0.00" departSpeed="max" arrivalLane="0" arrivalPos="max">
        <route edges="E0 -E4"/>
    </vehicle>
    <vehicle id="car-flow-route--E1_0_0--E0_0_max--3949343141680771758--7266489842092764092--4-0.23" type="actor-car--4238973458400510012" depart="153.62" departLane="0" departPos="0.00" departSpeed="max" arrivalLane="0" arrivalPos="max">
        <route edges="-E1 -E0"/>
    </vehicle>
    <vehicle id="car-flow-route-E4_0_0-E1_0_max-5581999185648294116--7266489842092764092--0-0.14" type="actor-car--4238973458400510012" depart="154.13" departLane="0" departPos="0.00" departSpeed="max" arrivalLane="0" arrivalPos="max">
        <route edges="E4 E1"/>
    </vehicle>