<?xml version="1.0" encoding="UTF-8"?>

<!-- generated on 2023-05-28 21:07:39 by Eclipse SUMO duarouter Version 1.16.0
<configuration xmlns:xsi="http://www.w3.org/2001/XMLSchema-instance" xsi:noNamespaceSchemaLocation="http://sumo.dlr.de/xsd/duarouterConfiguration.xsd">

    <input>
        <net-file value="/home/smarts/scenarios/sumo/intersections/1_to_2lane_left_turn_t_agents_1/map.net.xml"/>
        <route-files value="/tmp/tmp25y8cms1/trips.trips.xml"/>
    </input>

    <output>
        <output-file value="/home/smarts/scenarios/sumo/intersections/1_to_2lane_left_turn_t_agents_1/build/traffic/184.rou.xml"/>
    </output>

    <processing>
        <unsorted-input value="true"/>
        <repair value="true"/>
    </processing>

    <report>
        <error-log value="/root/.smarts/_duarouter_routing/traffic/184.log"/>
        <no-step-log value="true"/>
    </report>

    <random_number>
        <seed value="42"/>
    </random_number>

</configuration>
-->

<routes xmlns:xsi="http://www.w3.org/2001/XMLSchema-instance" xsi:noNamespaceSchemaLocation="http://sumo.dlr.de/xsd/routes_file.xsd">
    <vType id="actor-car--4238973458400510012" minGap="2.50" maxSpeed="55.50" speedFactor="normc(1.00,0.10,0.20,2.00)" vClass="passenger" accel="2.6" decel="4.5" sigma="0.5"/>
    <vehicle id="car-flow-route-E0_0_0-E1_1_max-6371496855813406146--7266489842092764092--3-0.0" type="actor-car--4238973458400510012" depart="1.39" departLane="0" departPos="0.00" departSpeed="max" arrivalLane="1" arrivalPos="max">
        <route edges="E0 E1"/>
    </vehicle>
    <vehicle id="car-flow-route--E1_1_0--E4_1_max-248899497872519462--7266489842092764092--2-0.0" type="actor-car--4238973458400510012" depart="1.85" departLane="1" departPos="0.00" departSpeed="max" arrivalLane="1" arrivalPos="max">
        <route edges="-E1 -E4"/>
    </vehicle>
    <vehicle id="car-flow-route--E1_0_0--E0_0_max--3949343141680771758--7266489842092764092--4-0.0" type="actor-car--4238973458400510012" depart="2.38" departLane="0" departPos="0.00" departSpeed="max" arrivalLane="0" arrivalPos="max">
        <route edges="-E1 -E0"/>
    </vehicle>
    <vehicle id="car-flow-route-E4_0_0-E1_0_max-5581999185648294116--7266489842092764092--0-0.0" type="actor-car--4238973458400510012" depart="2.50" departLane="0" departPos="0.00" departSpeed="max" arrivalLane="0" arrivalPos="max">
        <route edges="E4 E1"/>
    </vehicle>
    <vehicle id="car-flow-route--E1_0_0--E4_0_max--2345656016055477228--7266489842092764092--1-0.0" type="actor-car--4238973458400510012" depart="2.59" departLane="0" departPos="0.00" departSpeed="max" arrivalLane="0" arrivalPos="max">
        <route edges="-E1 -E4"/>
    </vehicle>
    <vehicle id="car-flow-route--E1_1_0--E4_1_max-248899497872519462--7266489842092764092--2-0.1" type="actor-car--4238973458400510012" depart="8.31" departLane="1" departPos="0.00" departSpeed="max" arrivalLane="1" arrivalPos="max">
        <route edges="-E1 -E4"/>
    </vehicle>
    <vehicle id="car-flow-route-E0_0_0-E1_1_max-6371496855813406146--7266489842092764092--3-0.1" type="actor-car--4238973458400510012" depart="9.35" departLane="0" departPos="0.00" departSpeed="max" arrivalLane="1" arrivalPos="max">
        <route edges="E0 E1"/>
    </vehicle>
    <vehicle id="car-flow-route--E1_0_0--E0_0_max--3949343141680771758--7266489842092764092--4-0.1" type="actor-car--4238973458400510012" depart="10.10" departLane="0" departPos="0.00" departSpeed="max" arrivalLane="0" arrivalPos="max">
        <route edges="-E1 -E0"/>
    </vehicle>
    <vehicle id="car-flow-route--E1_0_0--E4_0_max--2345656016055477228--7266489842092764092--1-0.1" type="actor-car--4238973458400510012" depart="13.74" departLane="0" departPos="0.00" departSpeed="max" arrivalLane="0" arrivalPos="max">
        <route edges="-E1 -E4"/>
    </vehicle>
    <vehicle id="car-flow-route-E4_0_0-E1_0_max-5581999185648294116--7266489842092764092--0-0.1" type="actor-car--4238973458400510012" depart="13.85" departLane="0" departPos="0.00" departSpeed="max" arrivalLane="0" arrivalPos="max">
        <route edges="E4 E1"/>
    </vehicle>
    <vehicle id="car-flow-route--E1_1_0--E4_1_max-248899497872519462--7266489842092764092--2-0.2" type="actor-car--4238973458400510012" depart="14.78" departLane="1" departPos="0.00" departSpeed="max" arrivalLane="1" arrivalPos="max">
        <route edges="-E1 -E4"/>
    </vehicle>
    <vehicle id="car-flow-route-E0_0_0-E1_1_max-6371496855813406146--7266489842092764092--3-0.2" type="actor-car--4238973458400510012" depart="17.31" departLane="0" departPos="0.00" departSpeed="max" arrivalLane="1" arrivalPos="max">
        <route edges="E0 E1"/>
    </vehicle>
    <vehicle id="car-flow-route--E1_0_0--E0_0_max--3949343141680771758--7266489842092764092--4-0.2" type="actor-car--4238973458400510012" depart="17.82" departLane="0" departPos="0.00" departSpeed="max" arrivalLane="0" arrivalPos="max">
        <route edges="-E1 -E0"/>
    </vehicle>
    <vehicle id="car-flow-route--E1_1_0--E4_1_max-248899497872519462--7266489842092764092--2-0.3" type="actor-car--4238973458400510012" depart="21.25" departLane="1" departPos="0.00" departSpeed="max" arrivalLane="1" arrivalPos="max">
        <route edges="-E1 -E4"/>
    </vehicle>
    <vehicle id="car-flow-route--E1_0_0--E4_0_max--2345656016055477228--7266489842092764092--1-0.2" type="actor-car--4238973458400510012" depart="24.88" departLane="0" departPos="0.00" departSpeed="max" arrivalLane="0" arrivalPos="max">
        <route edges="-E1 -E4"/>
    </vehicle>
    <vehicle id="car-flow-route-E4_0_0-E1_0_max-5581999185648294116--7266489842092764092--0-0.2" type="actor-car--4238973458400510012" depart="25.20" departLane="0" departPos="0.00" departSpeed="max" arrivalLane="0" arrivalPos="max">
        <route edges="E4 E1"/>
    </vehicle>
    <vehicle id="car-flow-route-E0_0_0-E1_1_max-6371496855813406146--7266489842092764092--3-0.3" type="actor-car--4238973458400510012" depart="25.27" departLane="0" departPos="0.00" departSpeed="max" arrivalLane="1" arrivalPos="max">
        <route edges="E0 E1"/>
    </vehicle>
    <vehicle id="car-flow-route--E1_0_0--E0_0_max--3949343141680771758--7266489842092764092--4-0.3" type="actor-car--4238973458400510012" depart="25.54" departLane="0" departPos="0.00" departSpeed="max" arrivalLane="0" arrivalPos="max">
        <route edges="-E1 -E0"/>
    </vehicle>
    <vehicle id="car-flow-route--E1_1_0--E4_1_max-248899497872519462--7266489842092764092--2-0.4" type="actor-car--4238973458400510012" depart="27.72" departLane="1" departPos="0.00" departSpeed="max" arrivalLane="1" arrivalPos="max">
        <route edges="-E1 -E4"/>
    </vehicle>
    <vehicle id="car-flow-route-E0_0_0-E1_1_max-6371496855813406146--7266489842092764092--3-0.4" type="actor-car--4238973458400510012" depart="33.24" departLane="0" departPos="0.00" departSpeed="max" arrivalLane="1" arrivalPos="max">
        <route edges="E0 E1"/>
    </vehicle>
    <vehicle id="car-flow-route--E1_0_0--E0_0_max--3949343141680771758--7266489842092764092--4-0.4" type="actor-car--4238973458400510012" depart="33.26" departLane="0" departPos="0.00" departSpeed="max" arrivalLane="0" arrivalPos="max">
        <route edges="-E1 -E0"/>
    </vehicle>
    <vehicle id="car-flow-route--E1_1_0--E4_1_max-248899497872519462--7266489842092764092--2-0.5" type="actor-car--4238973458400510012" depart="34.19" departLane="1" departPos="0.00" departSpeed="max" arrivalLane="1" arrivalPos="max">
        <route edges="-E1 -E4"/>
    </vehicle>
    <vehicle id="car-flow-route--E1_0_0--E4_0_max--2345656016055477228--7266489842092764092--1-0.3" type="actor-car--4238973458400510012" depart="36.03" departLane="0" departPos="0.00" departSpeed="max" arrivalLane="0" arrivalPos="max">
        <route edges="-E1 -E4"/>
    </vehicle>
    <vehicle id="car-flow-route-E4_0_0-E1_0_max-5581999185648294116--7266489842092764092--0-0.3" type="actor-car--4238973458400510012" depart="36.56" departLane="0" departPos="0.00" departSpeed="max" arrivalLane="0" arrivalPos="max">
        <route edges="E4 E1"/>
    </vehicle>
    <vehicle id="car-flow-route--E1_1_0--E4_1_max-248899497872519462--7266489842092764092--2-0.6" type="actor-car--4238973458400510012" depart="40.65" departLane="1" departPos="0.00" departSpeed="max" arrivalLane="1" arrivalPos="max">
        <route edges="-E1 -E4"/>
    </vehicle>
    <vehicle id="car-flow-route--E1_0_0--E0_0_max--3949343141680771758--7266489842092764092--4-0.5" type="actor-car--4238973458400510012" depart="40.98" departLane="0" departPos="0.00" departSpeed="max" arrivalLane="0" arrivalPos="max">
        <route edges="-E1 -E0"/>
    </vehicle>
    <vehicle id="car-flow-route-E0_0_0-E1_1_max-6371496855813406146--7266489842092764092--3-0.5" type="actor-car--4238973458400510012" depart="41.20" departLane="0" departPos="0.00" departSpeed="max" arrivalLane="1" arrivalPos="max">
        <route edges="E0 E1"/>
    </vehicle>
    <vehicle id="car-flow-route--E1_1_0--E4_1_max-248899497872519462--7266489842092764092--2-0.7" type="actor-car--4238973458400510012" depart="47.12" departLane="1" departPos="0.00" departSpeed="max" arrivalLane="1" arrivalPos="max">
        <route edges="-E1 -E4"/>
    </vehicle>
    <vehicle id="car-flow-route--E1_0_0--E4_0_max--2345656016055477228--7266489842092764092--1-0.4" type="actor-car--4238973458400510012" depart="47.17" departLane="0" departPos="0.00" departSpeed="max" arrivalLane="0" arrivalPos="max">
        <route edges="-E1 -E4"/>
    </vehicle>
    <vehicle id="car-flow-route-E4_0_0-E1_0_max-5581999185648294116--7266489842092764092--0-0.4" type="actor-car--4238973458400510012" depart="47.91" departLane="0" departPos="0.00" departSpeed="max" arrivalLane="0" arrivalPos="max">
        <route edges="E4 E1"/>
    </vehicle>
    <vehicle id="car-flow-route--E1_0_0--E0_0_max--3949343141680771758--7266489842092764092--4-0.6" type="actor-car--4238973458400510012" depart="48.70" departLane="0" departPos="0.00" departSpeed="max" arrivalLane="0" arrivalPos="max">
        <route edges="-E1 -E0"/>
    </vehicle>
    <vehicle id="car-flow-route-E0_0_0-E1_1_max-6371496855813406146--7266489842092764092--3-0.6" type="actor-car--4238973458400510012" depart="49.16" departLane="0" departPos="0.00" departSpeed="max" arrivalLane="1" arrivalPos="max">
        <route edges="E0 E1"/>
    </vehicle>
    <vehicle id="car-flow-route--E1_1_0--E4_1_max-248899497872519462--7266489842092764092--2-0.8" type="actor-car--4238973458400510012" depart="53.59" departLane="1" departPos="0.00" departSpeed="max" arrivalLane="1" arrivalPos="max">
        <route edges="-E1 -E4"/>
    </vehicle>
    <vehicle id="car-flow-route--E1_0_0--E0_0_max--3949343141680771758--7266489842092764092--4-0.7" type="actor-car--4238973458400510012" depart="56.42" departLane="0" departPos="0.00" departSpeed="max" arrivalLane="0" arrivalPos="max">
        <route edges="-E1 -E0"/>
    </vehicle>
    <vehicle id="car-flow-route-E0_0_0-E1_1_max-6371496855813406146--7266489842092764092--3-0.7" type="actor-car--4238973458400510012" depart="57.12" departLane="0" departPos="0.00" departSpeed="max" arrivalLane="1" arrivalPos="max">
        <route edges="E0 E1"/>
    </vehicle>
    <vehicle id="car-flow-route--E1_0_0--E4_0_max--2345656016055477228--7266489842092764092--1-0.5" type="actor-car--4238973458400510012" depart="58.32" departLane="0" departPos="0.00" departSpeed="max" arrivalLane="0" arrivalPos="max">
        <route edges="-E1 -E4"/>
    </vehicle>
    <vehicle id="car-flow-route-E4_0_0-E1_0_max-5581999185648294116--7266489842092764092--0-0.5" type="actor-car--4238973458400510012" depart="59.27" departLane="0" departPos="0.00" departSpeed="max" arrivalLane="0" arrivalPos="max">
        <route edges="E4 E1"/>
    </vehicle>
    <vehicle id="car-flow-route--E1_1_0--E4_1_max-248899497872519462--7266489842092764092--2-0.9" type="actor-car--4238973458400510012" depart="60.06" departLane="1" departPos="0.00" departSpeed="max" arrivalLane="1" arrivalPos="max">
        <route edges="-E1 -E4"/>
    </vehicle>
    <vehicle id="car-flow-route--E1_0_0--E0_0_max--3949343141680771758--7266489842092764092--4-0.8" type="actor-car--4238973458400510012" depart="64.14" departLane="0" departPos="0.00" departSpeed="max" arrivalLane="0" arrivalPos="max">
        <route edges="-E1 -E0"/>
    </vehicle>
    <vehicle id="car-flow-route-E0_0_0-E1_1_max-6371496855813406146--7266489842092764092--3-0.8" type="actor-car--4238973458400510012" depart="65.08" departLane="0" departPos="0.00" departSpeed="max" arrivalLane="1" arrivalPos="max">
        <route edges="E0 E1"/>
    </vehicle>
    <vehicle id="car-flow-route--E1_1_0--E4_1_max-248899497872519462--7266489842092764092--2-0.10" type="actor-car--4238973458400510012" depart="66.53" departLane="1" departPos="0.00" departSpeed="max" arrivalLane="1" arrivalPos="max">
        <route edges="-E1 -E4"/>
    </vehicle>
    <vehicle id="car-flow-route--E1_0_0--E4_0_max--2345656016055477228--7266489842092764092--1-0.6" type="actor-car--4238973458400510012" depart="69.46" departLane="0" departPos="0.00" departSpeed="max" arrivalLane="0" arrivalPos="max">
        <route edges="-E1 -E4"/>
    </vehicle>
    <vehicle id="car-flow-route-E4_0_0-E1_0_max-5581999185648294116--7266489842092764092--0-0.6" type="actor-car--4238973458400510012" depart="70.62" departLane="0" departPos="0.00" departSpeed="max" arrivalLane="0" arrivalPos="max">
        <route edges="E4 E1"/>
    </vehicle>
    <vehicle id="car-flow-route--E1_0_0--E0_0_max--3949343141680771758--7266489842092764092--4-0.9" type="actor-car--4238973458400510012" depart="71.86" departLane="0" departPos="0.00" departSpeed="max" arrivalLane="0" arrivalPos="max">
        <route edges="-E1 -E0"/>
    </vehicle>
    <vehicle id="car-flow-route--E1_1_0--E4_1_max-248899497872519462--7266489842092764092--2-0.11" type="actor-car--4238973458400510012" depart="72.99" departLane="1" departPos="0.00" departSpeed="max" arrivalLane="1" arrivalPos="max">
        <route edges="-E1 -E4"/>
    </vehicle>
    <vehicle id="car-flow-route-E0_0_0-E1_1_max-6371496855813406146--7266489842092764092--3-0.9" type="actor-car--4238973458400510012" depart="73.05" departLane="0" departPos="0.00" departSpeed="max" arrivalLane="1" arrivalPos="max">
        <route edges="E0 E1"/>
    </vehicle>
    <vehicle id="car-flow-route--E1_1_0--E4_1_max-248899497872519462--7266489842092764092--2-0.12" type="actor-car--4238973458400510012" depart="79.46" departLane="1" departPos="0.00" departSpeed="max" arrivalLane="1" arrivalPos="max">
        <route edges="-E1 -E4"/>
    </vehicle>
    <vehicle id="car-flow-route--E1_0_0--E0_0_max--3949343141680771758--7266489842092764092--4-0.10" type="actor-car--4238973458400510012" depart="79.58" departLane="0" departPos="0.00" departSpeed="max" arrivalLane="0" arrivalPos="max">
        <route edges="-E1 -E0"/>
    </vehicle>
    <vehicle id="car-flow-route--E1_0_0--E4_0_max--2345656016055477228--7266489842092764092--1-0.7" type="actor-car--4238973458400510012" depart="80.61" departLane="0" departPos="0.00" departSpeed="max" arrivalLane="0" arrivalPos="max">
        <route edges="-E1 -E4"/>
    </vehicle>
    <vehicle id="car-flow-route-E0_0_0-E1_1_max-6371496855813406146--7266489842092764092--3-0.10" type="actor-car--4238973458400510012" depart="81.01" departLane="0" departPos="0.00" departSpeed="max" arrivalLane="1" arrivalPos="max">
        <route edges="E0 E1"/>
    </vehicle>
    <vehicle id="car-flow-route-E4_0_0-E1_0_max-5581999185648294116--7266489842092764092--0-0.7" type="actor-car--4238973458400510012" depart="81.97" departLane="0" departPos="0.00" departSpeed="max" arrivalLane="0" arrivalPos="max">
        <route edges="E4 E1"/>
    </vehicle>
    <vehicle id="car-flow-route--E1_1_0--E4_1_max-248899497872519462--7266489842092764092--2-0.13" type="actor-car--4238973458400510012" depart="85.93" departLane="1" departPos="0.00" departSpeed="max" arrivalLane="1" arrivalPos="max">
        <route edges="-E1 -E4"/>
    </vehicle>
    <vehicle id="car-flow-route--E1_0_0--E0_0_max--3949343141680771758--7266489842092764092--4-0.11" type="actor-car--4238973458400510012" depart="87.30" departLane="0" departPos="0.00" departSpeed="max" arrivalLane="0" arrivalPos="max">
        <route edges="-E1 -E0"/>
    </vehicle>
    <vehicle id="car-flow-route-E0_0_0-E1_1_max-6371496855813406146--7266489842092764092--3-0.11" type="actor-car--4238973458400510012" depart="88.97" departLane="0" departPos="0.00" departSpeed="max" arrivalLane="1" arrivalPos="max">
        <route edges="E0 E1"/>
    </vehicle>
    <vehicle id="car-flow-route--E1_0_0--E4_0_max--2345656016055477228--7266489842092764092--1-0.8" type="actor-car--4238973458400510012" depart="91.75" departLane="0" departPos="0.00" departSpeed="max" arrivalLane="0" arrivalPos="max">
        <route edges="-E1 -E4"/>
    </vehicle>
    <vehicle id="car-flow-route--E1_1_0--E4_1_max-248899497872519462--7266489842092764092--2-0.14" type="actor-car--4238973458400510012" depart="92.40" departLane="1" departPos="0.00" departSpeed="max" arrivalLane="1" arrivalPos="max">
        <route edges="-E1 -E4"/>
    </vehicle>
    <vehicle id="car-flow-route-E4_0_0-E1_0_max-5581999185648294116--7266489842092764092--0-0.8" type="actor-car--4238973458400510012" depart="93.33" departLane="0" departPos="0.00" departSpeed="max" arrivalLane="0" arrivalPos="max">
        <route edges="E4 E1"/>
    </vehicle>
    <vehicle id="car-flow-route--E1_0_0--E0_0_max--3949343141680771758--7266489842092764092--4-0.12" type="actor-car--4238973458400510012" depart="95.02" departLane="0" departPos="0.00" departSpeed="max" arrivalLane="0" arrivalPos="max">
        <route edges="-E1 -E0"/>
    </vehicle>
    <vehicle id="car-flow-route-E0_0_0-E1_1_max-6371496855813406146--7266489842092764092--3-0.12" type="actor-car--4238973458400510012" depart="96.93" departLane="0" departPos="0.00" departSpeed="max" arrivalLane="1" arrivalPos="max">
        <route edges="E0 E1"/>
    </vehicle>
    <vehicle id="car-flow-route--E1_1_0--E4_1_max-248899497872519462--7266489842092764092--2-0.15" type="actor-car--4238973458400510012" depart="98.87" departLane="1" departPos="0.00" departSpeed="max" arrivalLane="1" arrivalPos="max">
        <route edges="-E1 -E4"/>
    </vehicle>
    <vehicle id="car-flow-route--E1_0_0--E0_0_max--3949343141680771758--7266489842092764092--4-0.13" type="actor-car--4238973458400510012" depart="102.74" departLane="0" departPos="0.00" departSpeed="max" arrivalLane="0" arrivalPos="max">
        <route edges="-E1 -E0"/>
    </vehicle>
    <vehicle id="car-flow-route--E1_0_0--E4_0_max--2345656016055477228--7266489842092764092--1-0.9" type="actor-car--4238973458400510012" depart="102.90" departLane="0" departPos="0.00" departSpeed="max" arrivalLane="0" arrivalPos="max">
        <route edges="-E1 -E4"/>
    </vehicle>
    <vehicle id="car-flow-route-E4_0_0-E1_0_max-5581999185648294116--7266489842092764092--0-0.9" type="actor-car--4238973458400510012" depart="104.68" departLane="0" departPos="0.00" departSpeed="max" arrivalLane="0" arrivalPos="max">
        <route edges="E4 E1"/>
    </vehicle>
    <vehicle id="car-flow-route-E0_0_0-E1_1_max-6371496855813406146--7266489842092764092--3-0.13" type="actor-car--4238973458400510012" depart="104.89" departLane="0" departPos="0.00" departSpeed="max" arrivalLane="1" arrivalPos="max">
        <route edges="E0 E1"/>
    </vehicle>
    <vehicle id="car-flow-route--E1_1_0--E4_1_max-248899497872519462--7266489842092764092--2-0.16" type="actor-car--4238973458400510012" depart="105.33" departLane="1" departPos="0.00" departSpeed="max" arrivalLane="1" arrivalPos="max">
        <route edges="-E1 -E4"/>
    </vehicle>
    <vehicle id="car-flow-route--E1_0_0--E0_0_max--3949343141680771758--7266489842092764092--4-0.14" type="actor-car--4238973458400510012" depart="110.46" departLane="0" departPos="0.00" departSpeed="max" arrivalLane="0" arrivalPos="max">
        <route edges="-E1 -E0"/>
    </vehicle>
    <vehicle id="car-flow-route--E1_1_0--E4_1_max-248899497872519462--7266489842092764092--2-0.17" type="actor-car--4238973458400510012" depart="111.80" departLane="1" departPos="0.00" departSpeed="max" arrivalLane="1" arrivalPos="max">
        <route edges="-E1 -E4"/>
    </vehicle>
    <vehicle id="car-flow-route-E0_0_0-E1_1_max-6371496855813406146--7266489842092764092--3-0.14" type="actor-car--4238973458400510012" depart="112.86" departLane="0" departPos="0.00" departSpeed="max" arrivalLane="1" arrivalPos="max">
        <route edges="E0 E1"/>
    </vehicle>
    <vehicle id="car-flow-route--E1_0_0--E4_0_max--2345656016055477228--7266489842092764092--1-0.10" type="actor-car--4238973458400510012" depart="114.04" departLane="0" departPos="0.00" departSpeed="max" arrivalLane="0" arrivalPos="max">
        <route edges="-E1 -E4"/>
    </vehicle>
    <vehicle id="car-flow-route-E4_0_0-E1_0_max-5581999185648294116--7266489842092764092--0-0.10" type="actor-car--4238973458400510012" depart="116.04" departLane="0" departPos="0.00" departSpeed="max" arrivalLane="0" arrivalPos="max">
        <route edges="E4 E1"/>
    </vehicle>
    <vehicle id="car-flow-route--E1_0_0--E0_0_max--3949343141680771758--7266489842092764092--4-0.15" type="actor-car--4238973458400510012" depart="118.18" departLane="0" departPos="0.00" departSpeed="max" arrivalLane="0" arrivalPos="max">
        <route edges="-E1 -E0"/>
    </vehicle>
    <vehicle id="car-flow-route--E1_1_0--E4_1_max-248899497872519462--7266489842092764092--2-0.18" type="actor-car--4238973458400510012" depart="118.27" departLane="1" departPos="0.00" departSpeed="max" arrivalLane="1" arrivalPos="max">
        <route edges="-E1 -E4"/>
    </vehicle>
    <vehicle id="car-flow-route-E0_0_0-E1_1_max-6371496855813406146--7266489842092764092--3-0.15" type="actor-car--4238973458400510012" depart="120.82" departLane="0" departPos="0.00" departSpeed="max" arrivalLane="1" arrivalPos="max">
        <route edges="E0 E1"/>
    </vehicle>
    <vehicle id="car-flow-route--E1_1_0--E4_1_max-248899497872519462--7266489842092764092--2-0.19" type="actor-car--4238973458400510012" depart="124.74" departLane="1" departPos="0.00" departSpeed="max" arrivalLane="1" arrivalPos="max">
        <route edges="-E1 -E4"/>
    </vehicle>
    <vehicle id="car-flow-route--E1_0_0--E4_0_max--2345656016055477228--7266489842092764092--1-0.11" type="actor-car--4238973458400510012" depart="125.19" departLane="0" departPos="0.00" departSpeed="max" arrivalLane="0" arrivalPos="max">
        <route edges="-E1 -E4"/>
    </vehicle>
    <vehicle id="car-flow-route--E1_0_0--E0_0_max--3949343141680771758--7266489842092764092--4-0.16" type="actor-car--4238973458400510012" depart="125.90" departLane="0" departPos="0.00" departSpeed="max" arrivalLane="0" arrivalPos="max">
        <route edges="-E1 -E0"/>
    </vehicle>
    <vehicle id="car-flow-route-E4_0_0-E1_0_max-5581999185648294116--7266489842092764092--0-0.11" type="actor-car--4238973458400510012" depart="127.39" departLane="0" departPos="0.00" departSpeed="max" arrivalLane="0" arrivalPos="max">
        <route edges="E4 E1"/>
    </vehicle>
    <vehicle id="car-flow-route-E0_0_0-E1_1_max-6371496855813406146--7266489842092764092--3-0.16" type="actor-car--4238973458400510012" depart="128.78" departLane="0" departPos="0.00" departSpeed="max" arrivalLane="1" arrivalPos="max">
        <route edges="E0 E1"/>
    </vehicle>
    <vehicle id="car-flow-route--E1_1_0--E4_1_max-248899497872519462--7266489842092764092--2-0.20" type="actor-car--4238973458400510012" depart="131.21" departLane="1" departPos="0.00" departSpeed="max" arrivalLane="1" arrivalPos="max">
        <route edges="-E1 -E4"/>
    </vehicle>
    <vehicle id="car-flow-route--E1_0_0--E0_0_max--3949343141680771758--7266489842092764092--4-0.17" type="actor-car--4238973458400510012" depart="133.62" departLane="0" departPos="0.00" departSpeed="max" arrivalLane="0" arrivalPos="max">
        <route edges="-E1 -E0"/>
    </vehicle>
    <vehicle id="car-flow-route--E1_0_0--E4_0_max--2345656016055477228--7266489842092764092--1-0.12" type="actor-car--4238973458400510012" depart="136.33" departLane="0" departPos="0.00" departSpeed="max" arrivalLane="0" arrivalPos="max">
        <route edges="-E1 -E4"/>
    </vehicle>
    <vehicle id="car-flow-route-E0_0_0-E1_1_max-6371496855813406146--7266489842092764092--3-0.17" type="actor-car--4238973458400510012" depart="136.74" departLane="0" departPos="0.00" departSpeed="max" arrivalLane="1" arrivalPos="max">
        <route edges="E0 E1"/>
    </vehicle>
    <vehicle id="car-flow-route--E1_1_0--E4_1_max-248899497872519462--7266489842092764092--2-0.21" type="actor-car--4238973458400510012" depart="137.67" departLane="1" departPos="0.00" departSpeed="max" arrivalLane="1" arrivalPos="max">
        <route edges="-E1 -E4"/>
    </vehicle>
    <vehicle id="car-flow-route-E4_0_0-E1_0_max-5581999185648294116--7266489842092764092--0-0.12" type="actor-car--4238973458400510012" depart="138.74" departLane="0" departPos="0.00" departSpeed="max" arrivalLane="0" arrivalPos="max">
        <route edges="E4 E1"/>
    </vehicle>
    <vehicle id="car-flow-route--E1_0_0--E0_0_max--3949343141680771758--7266489842092764092--4-0.18" type="actor-car--4238973458400510012" depart="141.34" departLane="0" departPos="0.00" departSpeed="max" arrivalLane="0" arrivalPos="max">
        <route edges="-E1 -E0"/>
    </vehicle>
    <vehicle id="car-flow-route--E1_1_0--E4_1_max-248899497872519462--7266489842092764092--2-0.22" type="actor-car--4238973458400510012" depart="144.14" departLane="1" departPos="0.00" departSpeed="max" arrivalLane="1" arrivalPos="max">
        <route edges="-E1 -E4"/>
    </vehicle>
    <vehicle id="car-flow-route-E0_0_0-E1_1_max-6371496855813406146--7266489842092764092--3-0.18" type="actor-car--4238973458400510012" depart="144.70" departLane="0" departPos="0.00" departSpeed="max" arrivalLane="1" arrivalPos="max">
        <route edges="E0 E1"/>
    </vehicle>
    <vehicle id="car-flow-route--E1_0_0--E4_0_max--2345656016055477228--7266489842092764092--1-0.13" type="actor-car--4238973458400510012" depart="147.48" departLane="0" departPos="0.00" departSpeed="max" arrivalLane="0" arrivalPos="max">
        <route edges="-E1 -E4"/>
    </vehicle>
    <vehicle id="car-flow-route--E1_0_0--E0_0_max--3949343141680771758--7266489842092764092--4-0.19" type="actor-car--4238973458400510012" depart="149.06" departLane="0" departPos="0.00" departSpeed="max" arrivalLane="0" arrivalPos="max">
        <route edges="-E1 -E0"/>
    </vehicle>
    <vehicle id="car-flow-route-E4_0_0-E1_0_max-5581999185648294116--7266489842092764092--0-0.13" type="actor-car--4238973458400510012" depart="150.10" departLane="0" departPos="0.00" departSpeed="max" arrivalLane="0" arrivalPos="max">
        <route edges="E4 E1"/>
    </vehicle>
    <vehicle id="car-flow-route--E1_1_0--E4_1_max-248899497872519462--7266489842092764092--2-0.23" type="actor-car--4238973458400510012" depart="150.61" departLane="1" departPos="0.00" departSpeed="max" arrivalLane="1" arrivalPos="max">
        <route edges="-E1 -E4"/>
    </vehicle>
    <vehicle id="car-flow-route-E0_0_0-E1_1_max-6371496855813406146--7266489842092764092--3-0.19" type="actor-car--4238973458400510012" depart="152.67" departLane="0" departPos="0.00" departSpeed="max" arrivalLane="1" arrivalPos="max">
        <route edges="E0 E1"/>
    </vehicle>
    <vehicle id="car-flow-route--E1_0_0--E0_0_max--3949343141680771758--7266489842092764092--4-0.20" type="actor-car--4238973458400510012" depart="156.78" departLane="0" departPos="0.00" departSpeed="max" arrivalLane="0" arrivalPos="max">
        <route edges="-E1 -E0"/>
    </vehicle>
    <vehicle id="car-flow-route--E1_1_0--E4_1_max-248899497872519462--7266489842092764092--2-0.24" type="actor-car--4238973458400510012" depart="157.08" departLane="1" departPos="0.00" departSpeed="max" arrivalLane="1" arrivalPos="max">
        <route edges="-E1 -E4"/>
    </vehicle>
    <vehicle id="car-flow-route--E1_0_0--E4_0_max--2345656016055477228--7266489842092764092--1-0.14" type="actor-car--4238973458400510012" depart="158.62" departLane="0" departPos="0.00" departSpeed="max" arrivalLane="0" arrivalPos="max">
        <route edges="-E1 -E4"/>
    </vehicle>
    <vehicle id="car-flow-route-E0_0_0-E1_1_max-6371496855813406146--7266489842092764092--3-0.20" type="actor-car--4238973458400510012" depart="160.63" departLane="0" departPos="0.00" departSpeed="max" arrivalLane="1" arrivalPos="max">
        <route edges="E0 E1"/>
    </vehicle>
    <vehicle id="car-flow-route-E4_0_0-E1_0_max-5581999185648294116--7266489842092764092--0-0.14" type="actor-car--4238973458400510012" depart="161.45" departLane="0" departPos="0.00" departSpeed="max" arrivalLane="0" arrivalPos="max">
        <route edges="E4 E1"/>
    </vehicle>
    <vehicle id="car-flow-route--E1_1_0--E4_1_max-248899497872519462--7266489842092764092--2-0.25" type="actor-car--4238973458400510012" depart="163.55" departLane="1" departPos="0.00" departSpeed="max" arrivalLane="1" arrivalPos="max">
        <route edges="-E1 -E4"/>
    </vehicle>
    <vehicle id="car-flow-route--E1_0_0--E0_0_max--3949343141680771758--7266489842092764092--4-0.21" type="actor-car--4238973458400510012" depart="164.50" departLane="0" departPos="0.00" departSpeed="max" arrivalLane="0" arrivalPos="max">
        <route edges="-E1 -E0"/>
    </vehicle>
    <vehicle id="car-flow-route-E0_0_0-E1_1_max-6371496855813406146--7266489842092764092--3-0.21" type="actor-car--4238973458400510012" depart="168.59" departLane="0" departPos="0.00" departSpeed="max" arrivalLane="1" arrivalPos="max">
        <route edges="E0 E1"/>
    </vehicle>
    <vehicle id="car-flow-route--E1_0_0--E4_0_max--2345656016055477228--7266489842092764092--1-0.15" type="actor-car--4238973458400510012" depart="169.77" departLane="0" departPos="0.00" departSpeed="max" arrivalLane="0" arrivalPos="max">
        <route edges="-E1 -E4"/>
    </vehicle>