<?xml version="1.0" encoding="UTF-8"?>

<!-- generated on 2023-05-28 21:07:32 by Eclipse SUMO duarouter Version 1.16.0
<configuration xmlns:xsi="http://www.w3.org/2001/XMLSchema-instance" xsi:noNamespaceSchemaLocation="http://sumo.dlr.de/xsd/duarouterConfiguration.xsd">

    <input>
        <net-file value="/home/smarts/scenarios/sumo/intersections/1_to_2lane_left_turn_t_agents_1/map.net.xml"/>
        <route-files value="/tmp/tmp8yt5opr2/trips.trips.xml"/>
    </input>

    <output>
        <output-file value="/home/smarts/scenarios/sumo/intersections/1_to_2lane_left_turn_t_agents_1/build/traffic/23.rou.xml"/>
    </output>

    <processing>
        <unsorted-input value="true"/>
        <repair value="true"/>
    </processing>

    <report>
        <error-log value="/root/.smarts/_duarouter_routing/traffic/23.log"/>
        <no-step-log value="true"/>
    </report>

    <random_number>
        <seed value="42"/>
    </random_number>

</configuration>
-->

<routes xmlns:xsi="http://www.w3.org/2001/XMLSchema-instance" xsi:noNamespaceSchemaLocation="http://sumo.dlr.de/xsd/routes_file.xsd">
    <vType id="actor-car--4238973458400510012" minGap="2.50" maxSpeed="55.50" speedFactor="normc(1.00,0.10,0.20,2.00)" vClass="passenger" accel="2.6" decel="4.5" sigma="0.5"/>
    <vehicle id="car-flow-route-E4_1_0--E0_0_max-2452033897916848868--7266489842092764092--1-0.0" type="actor-car--4238973458400510012" depart="0.74" departLane="1" departPos="0.00" departSpeed="max" arrivalLane="0" arrivalPos="max">
        <route edges="E4 -E0"/>
    </vehicle>
    <vehicle id="car-flow-route--E1_0_0--E4_0_max--2345656016055477228--7266489842092764092--0-0.0" type="actor-car--4238973458400510012" depart="1.38" departLane="0" departPos="0.00" departSpeed="max" arrivalLane="0" arrivalPos="max">
        <route edges="-E1 -E4"/>
    </vehicle>
    <vehicle id="car-flow-route--E1_0_0--E4_0_max--2345656016055477228--7266489842092764092--0-0.1" type="actor-car--4238973458400510012" depart="7.65" departLane="0" departPos="0.00" departSpeed="max" arrivalLane="0" arrivalPos="max">
        <route edges="-E1 -E4"/>
    </vehicle>
    <vehicle id="car-flow-route-E4_1_0--E0_0_max-2452033897916848868--7266489842092764092--1-0.1" type="actor-car--4238973458400510012" depart="10.23" departLane="1" departPos="0.00" departSpeed="max" arrivalLane="0" arrivalPos="max">
        <route edges="E4 -E0"/>
    </vehicle>
    <vehicle id="car-flow-route--E1_0_0--E4_0_max--2345656016055477228--7266489842092764092--0-0.2" type="actor-car--4238973458400510012" depart="13.91" departLane="0" departPos="0.00" departSpeed="max" arrivalLane="0" arrivalPos="max">
        <route edges="-E1 -E4"/>
    </vehicle>
    <vehicle id="car-flow-route-E4_1_0--E0_0_max-2452033897916848868--7266489842092764092--1-0.2" type="actor-car--4238973458400510012" depart="19.71" departLane="1" departPos="0.00" departSpeed="max" arrivalLane="0" arrivalPos="max">
        <route edges="E4 -E0"/>
    </vehicle>
    <vehicle id="car-flow-route--E1_0_0--E4_0_max--2345656016055477228--7266489842092764092--0-0.3" type="actor-car--4238973458400510012" depart="20.18" departLane="0" departPos="0.00" departSpeed="max" arrivalLane="0" arrivalPos="max">
        <route edges="-E1 -E4"/>
    </vehicle>
    <vehicle id="car-flow-route--E1_0_0--E4_0_max--2345656016055477228--7266489842092764092--0-0.4" type="actor-car--4238973458400510012" depart="26.45" departLane="0" departPos="0.00" departSpeed="max" arrivalLane="0" arrivalPos="max">
        <route edges="-E1 -E4"/>
    </vehicle>
    <vehicle id="car-flow-route-E4_1_0--E0_0_max-2452033897916848868--7266489842092764092--1-0.3" type="actor-car--4238973458400510012" depart="29.20" departLane="1" departPos="0.00" departSpeed="max" arrivalLane="0" arrivalPos="max">
        <route edges="E4 -E0"/>
    </vehicle>
    <vehicle id="car-flow-route--E1_0_0--E4_0_max--2345656016055477228--7266489842092764092--0-0.5" type="actor-car--4238973458400510012" depart="32.72" departLane="0" departPos="0.00" departSpeed="max" arrivalLane="0" arrivalPos="max">
        <route edges="-E1 -E4"/>
    </vehicle>
    <vehicle id="car-flow-route-E4_1_0--E0_0_max-2452033897916848868--7266489842092764092--1-0.4" type="actor-car--4238973458400510012" depart="38.69" departLane="1" departPos="0.00" departSpeed="max" arrivalLane="0" arrivalPos="max">
        <route edges="E4 -E0"/>
    </vehicle>
    <vehicle id="car-flow-route--E1_0_0--E4_0_max--2345656016055477228--7266489842092764092--0-0.6" type="actor-car--4238973458400510012" depart="38.99" departLane="0" departPos="0.00" departSpeed="max" arrivalLane="0" arrivalPos="max">
        <route edges="-E1 -E4"/>
    </vehicle>
    <vehicle id="car-flow-route--E1_0_0--E4_0_max--2345656016055477228--7266489842092764092--0-0.7" type="actor-car--4238973458400510012" depart="45.25" departLane="0" departPos="0.00" departSpeed="max" arrivalLane="0" arrivalPos="max">
        <route edges="-E1 -E4"/>
    </vehicle>
    <vehicle id="car-flow-route-E4_1_0--E0_0_max-2452033897916848868--7266489842092764092--1-0.5" type="actor-car--4238973458400510012" depart="48.18" departLane="1" departPos="0.00" departSpeed="max" arrivalLane="0" arrivalPos="max">
        <route edges="E4 -E0"/>
    </vehicle>
    <vehicle id="car-flow-route--E1_0_0--E4_0_max--2345656016055477228--7266489842092764092--0-0.8" type="actor-car--4238973458400510012" depart="51.52" departLane="0" departPos="0.00" departSpeed="max" arrivalLane="0" arrivalPos="max">
        <route edges="-E1 -E4"/>
    </vehicle>
    <vehicle id="car-flow-route-E4_1_0--E0_0_max-2452033897916848868--7266489842092764092--1-0.6" type="actor-car--4238973458400510012" depart="57.66" departLane="1" departPos="0.00" departSpeed="max" arrivalLane="0" arrivalPos="max">
        <route edges="E4 -E0"/>
    </vehicle>
    <vehicle id="car-flow-route--E1_0_0--E4_0_max--2345656016055477228--7266489842092764092--0-0.9" type="actor-car--4238973458400510012" depart="57.79" departLane="0" departPos="0.00" departSpeed="max" arrivalLane="0" arrivalPos="max">
        <route edges="-E1 -E4"/>
    </vehicle>
    <vehicle id="car-flow-route--E1_0_0--E4_0_max--2345656016055477228--7266489842092764092--0-0.10" type="actor-car--4238973458400510012" depart="64.06" departLane="0" departPos="0.00" departSpeed="max" arrivalLane="0" arrivalPos="max">
        <route edges="-E1 -E4"/>
    </vehicle>
    <vehicle id="car-flow-route-E4_1_0--E0_0_max-2452033897916848868--7266489842092764092--1-0.7" type="actor-car--4238973458400510012" depart="67.15" departLane="1" departPos="0.00" departSpeed="max" arrivalLane="0" arrivalPos="max">
        <route edges="E4 -E0"/>
    </vehicle>
    <vehicle id="car-flow-route--E1_0_0--E4_0_max--2345656016055477228--7266489842092764092--0-0.11" type="actor-car--4238973458400510012" depart="70.33" departLane="0" departPos="0.00" departSpeed="max" arrivalLane="0" arrivalPos="max">
        <route edges="-E1 -E4"/>
    </vehicle>
    <vehicle id="car-flow-route--E1_0_0--E4_0_max--2345656016055477228--7266489842092764092--0-0.12" type="actor-car--4238973458400510012" depart="76.59" departLane="0" departPos="0.00" departSpeed="max" arrivalLane="0" arrivalPos="max">
        <route edges="-E1 -E4"/>
    </vehicle>
    <vehicle id="car-flow-route-E4_1_0--E0_0_max-2452033897916848868--7266489842092764092--1-0.8" type="actor-car--4238973458400510012" depart="76.64" departLane="1" departPos="0.00" departSpeed="max" arrivalLane="0" arrivalPos="max">
        <route edges="E4 -E0"/>
    </vehicle>
    <vehicle id="car-flow-route--E1_0_0--E4_0_max--2345656016055477228--7266489842092764092--0-0.13" type="actor-car--4238973458400510012" depart="82.86" departLane="0" departPos="0.00" departSpeed="max" arrivalLane="0" arrivalPos="max">
        <route edges="-E1 -E4"/>
    </vehicle>
    <vehicle id="car-flow-route-E4_1_0--E0_0_max-2452033897916848868--7266489842092764092--1-0.9" type="actor-car--4238973458400510012" depart="86.12" departLane="1" departPos="0.00" departSpeed="max" arrivalLane="0" arrivalPos="max">
        <route edges="E4 -E0"/>
    </vehicle>
    <vehicle id="car-flow-route--E1_0_0--E4_0_max--2345656016055477228--7266489842092764092--0-0.14" type="actor-car--4238973458400510012" depart="89.13" departLane="0" departPos="0.00" departSpeed="max" arrivalLane="0" arrivalPos="max">
        <route edges="-E1 -E4"/>
    </vehicle>
    <vehicle id="car-flow-route--E1_0_0--E4_0_max--2345656016055477228--7266489842092764092--0-0.15" type="actor-car--4238973458400510012" depart="95.40" departLane="0" departPos="0.00" departSpeed="max" arrivalLane="0" arrivalPos="max">
        <route edges="-E1 -E4"/>
    </vehicle>
    <vehicle id="car-flow-route-E4_1_0--E0_0_max-2452033897916848868--7266489842092764092--1-0.10" type="actor-car--4238973458400510012" depart="95.61" departLane="1" departPos="0.00" departSpeed="max" arrivalLane="0" arrivalPos="max">
        <route edges="E4 -E0"/>
    </vehicle>
    <vehicle id="car-flow-route--E1_0_0--E4_0_max--2345656016055477228--7266489842092764092--0-0.16" type="actor-car--4238973458400510012" depart="101.67" departLane="0" departPos="0.00" departSpeed="max" arrivalLane="0" arrivalPos="max">
        <route edges="-E1 -E4"/>
    </vehicle>
    <vehicle id="car-flow-route-E4_1_0--E0_0_max-2452033897916848868--7266489842092764092--1-0.11" type="actor-car--4238973458400510012" depart="105.10" departLane="1" departPos="0.00" departSpeed="max" arrivalLane="0" arrivalPos="max">
        <route edges="E4 -E0"/>
    </vehicle>
    <vehicle id="car-flow-route--E1_0_0--E4_0_max--2345656016055477228--7266489842092764092--0-0.17" type="actor-car--4238973458400510012" depart="107.93" departLane="0" departPos="0.00" departSpeed="max" arrivalLane="0" arrivalPos="max">
        <route edges="-E1 -E4"/>
    </vehicle>
    <vehicle id="car-flow-route--E1_0_0--E4_0_max--2345656016055477228--7266489842092764092--0-0.18" type="actor-car--4238973458400510012" depart="114.20" departLane="0" departPos="0.00" departSpeed="max" arrivalLane="0" arrivalPos="max">
        <route edges="-E1 -E4"/>
    </vehicle>
    <vehicle id="car-flow-route-E4_1_0--E0_0_max-2452033897916848868--7266489842092764092--1-0.12" type="actor-car--4238973458400510012" depart="114.58" departLane="1" departPos="0.00" departSpeed="max" arrivalLane="0" arrivalPos="max">
        <route edges="E4 -E0"/>
    </vehicle>
    <vehicle id="car-flow-route--E1_0_0--E4_0_max--2345656016055477228--7266489842092764092--0-0.19" type="actor-car--4238973458400510012" depart="120.47" departLane="0" departPos="0.00" departSpeed="max" arrivalLane="0" arrivalPos="max">
        <route edges="-E1 -E4"/>
    </vehicle>
    <vehicle id="car-flow-route-E4_1_0--E0_0_max-2452033897916848868--7266489842092764092--1-0.13" type="actor-car--4238973458400510012" depart="124.07" departLane="1" departPos="0.00" departSpeed="max" arrivalLane="0" arrivalPos="max">
        <route edges="E4 -E0"/>
    </vehicle>
    <vehicle id="car-flow-route--E1_0_0--E4_0_max--2345656016055477228--7266489842092764092--0-0.20" type="actor-car--4238973458400510012" depart="126.74" departLane="0" departPos="0.00" departSpeed="max" arrivalLane="0" arrivalPos="max">
        <route edges="-E1 -E4"/>
    </vehicle>
    <vehicle id="car-flow-route--E1_0_0--E4_0_max--2345656016055477228--7266489842092764092--0-0.21" type="actor-car--4238973458400510012" depart="133.01" departLane="0" departPos="0.00" departSpeed="max" arrivalLane="0" arrivalPos="max">
        <route edges="-E1 -E4"/>
    </vehicle>
    <vehicle id="car-flow-route-E4_1_0--E0_0_max-2452033897916848868--7266489842092764092--1-0.14" type="actor-car--4238973458400510012" depart="133.56" departLane="1" departPos="0.00" departSpeed="max" arrivalLane="0" arrivalPos="max">
        <route edges="E4 -E0"/>
    </vehicle>
    <vehicle id="car-flow-route--E1_0_0--E4_0_max--2345656016055477228--7266489842092764092--0-0.22" type="actor-car--4238973458400510012" depart="139.27" departLane="0" departPos="0.00" departSpeed="max" arrivalLane="0" arrivalPos="max">
        <route edges="-E1 -E4"/>
    </vehicle>
    <vehicle id="car-flow-route-E4_1_0--E0_0_max-2452033897916848868--7266489842092764092--1-0.15" type="actor-car--4238973458400510012" depart="143.05" departLane="1" departPos="0.00" departSpeed="max" arrivalLane="0" arrivalPos="max">
        <route edges="E4 -E0"/>
    </vehicle>
    <vehicle id="car-flow-route--E1_0_0--E4_0_max--2345656016055477228--7266489842092764092--0-0.23" type="actor-car--4238973458400510012" depart="145.54" departLane="0" departPos="0.00" departSpeed="max" arrivalLane="0" arrivalPos="max">
        <route edges="-E1 -E4"/>
    </vehicle>
    <vehicle id="car-flow-route--E1_0_0--E4_0_max--2345656016055477228--7266489842092764092--0-0.24" type="actor-car--4238973458400510012" depart="151.81" departLane="0" departPos="0.00" departSpeed="max" arrivalLane="0" arrivalPos="max">
        <route edges="-E1 -E4"/>
    </vehicle>
    <vehicle id="car-flow-route-E4_1_0--E0_0_max-2452033897916848868--7266489842092764092--1-0.16" type="actor-car--4238973458400510012" depart="152.53" departLane="1" departPos="0.00" departSpeed="max" arrivalLane="0" arrivalPos="max">
        <route edges="E4 -E0"/>
    </vehicle>
    <vehicle id="car-flow-route--E1_0_0--E4_0_max--2345656016055477228--7266489842092764092--0-0.25" type="actor-car--4238973458400510012" depart="158.08" departLane="0" departPos="0.00" departSpeed="max" arrivalLane="0" arrivalPos="max">
        <route edges="-E1 -E4"/>
    </vehicle>
    <vehicle id="car-flow-route-E4_1_0--E0_0_max-2452033897916848868--7266489842092764092--1-0.17" type="actor-car--4238973458400510012" depart="162.02" departLane="1" departPos="0.00" departSpeed="max" arrivalLane="0" arrivalPos="max">
        <route edges="E4 -E0"/>
    </vehicle>
    <vehicle id="car-flow-route--E1_0_0--E4_0_max--2345656016055477228--7266489842092764092--0-0.26" type="actor-car--4238973458400510012" depart="164.35" departLane="0" departPos="0.00" departSpeed="max" arrivalLane="0" arrivalPos="max">
        <route edges="-E1 -E4"/>
    </vehicle>
    <vehicle id="car-flow-route--E1_0_0--E4_0_max--2345656016055477228--7266489842092764092--0-0.27" type="actor-car--4238973458400510012" depart="170.61" departLane="0" departPos="0.00" departSpeed="max" arrivalLane="0" arrivalPos="max">
        <route edges="-E1 -E4"/>
    </vehicle>
    <vehicle id="car-flow-route-E4_1_0--E0_0_max-2452033897916848868--7266489842092764092--1-0.18" type="actor-car--4238973458400510012" depart="171.51" departLane="1" departPos="0.00" departSpeed="max" arrivalLane="0" arrivalPos="max">
        <route edges="E4 -E0"/>
    </vehicle>
    <vehicle id="car-flow-route--E1_0_0--E4_0_max--2345656016055477228--7266489842092764092--0-0.28" type="actor-car--4238973458400510012" depart="176.88" departLane="0" departPos="0.00" departSpeed="max" arrivalLane="0" arrivalPos="max">
        <route edges="-E1 -E4"/>
    </vehicle>
    <vehicle id="car-flow-route-E4_1_0--E0_0_max-2452033897916848868--7266489842092764092--1-0.19" type="actor-car--4238973458400510012" depart="180.99" departLane="1" departPos="0.00" departSpeed="max" arrivalLane="0" arrivalPos="max">
        <route edges="E4 -E0"/>
    </vehicle>
    <vehicle id="car-flow-route--E1_0_0--E4_0_max--2345656016055477228--7266489842092764092--0-0.29" type="actor-car--4238973458400510012" depart="183.15" departLane="0" departPos="0.00" departSpeed="max" arrivalLane="0" arrivalPos="max">
        <route edges="-E1 -E4"/>
    </vehicle>
    <vehicle id="car-flow-route--E1_0_0--E4_0_max--2345656016055477228--7266489842092764092--0-0.30" type="actor-car--4238973458400510012" depart="189.42" departLane="0" departPos="0.00" departSpeed="max" arrivalLane="0" arrivalPos="max">
        <route edges="-E1 -E4"/>
    </vehicle>
    <vehicle id="car-flow-route-E4_1_0--E0_0_max-2452033897916848868--7266489842092764092--1-0.20" type="actor-car--4238973458400510012" depart="190.48" departLane="1" departPos="0.00" departSpeed="max" arrivalLane="0" arrivalPos="max">
        <route edges="E4 -E0"/>
    </vehicle>
    <vehicle id="car-flow-route--E1_0_0--E4_0_max--2345656016055477228--7266489842092764092--0-0.31" type="actor-car--4238973458400510012" depart="195.69" departLane="0" departPos="0.00" departSpeed="max" arrivalLane="0" arrivalPos="max">
        <route edges="-E1 -E4"/>
    </vehicle>
    <vehicle id="car-flow-route-E4_1_0--E0_0_max-2452033897916848868--7266489842092764092--1-0.21" type="actor-car--4238973458400510012" depart="199.97" departLane="1" departPos="0.00" departSpeed="max" arrivalLane="0" arrivalPos="max">
        <route edges="E4 -E0"/>
    </vehicle>
    <vehicle id="car-flow-route--E1_0_0--E4_0_max--2345656016055477228--7266489842092764092--0-0.32" type="actor-car--4238973458400510012" depart="201.95" departLane="0" departPos="0.00" departSpeed="max" arrivalLane="0" arrivalPos="max">
        <route edges="-E1 -E4"/>
    </vehicle>
    <vehicle id="car-flow-route--E1_0_0--E4_0_max--2345656016055477228--7266489842092764092--0-0.33" type="actor-car--4238973458400510012" depart="208.22" departLane="0" departPos="0.00" departSpeed="max" arrivalLane="0" arrivalPos="max">
        <route edges="-E1 -E4"/>
    </vehicle>
    <vehicle id="car-flow-route-E4_1_0--E0_0_max-2452033897916848868--7266489842092764092--1-0.22" type="actor-car--4238973458400510012" depart="209.45" departLane="1" departPos="0.00" departSpeed="max" arrivalLane="0" arrivalPos="max">
        <route edges="E4 -E0"/>
    </vehicle>
    <vehicle id="car-flow-route--E1_0_0--E4_0_max--2345656016055477228--7266489842092764092--0-0.34" type="actor-car--4238973458400510012" depart="214.49" departLane="0" departPos="0.00" departSpeed="max" arrivalLane="0" arrivalPos="max">
        <route edges="-E1 -E4"/>
    </vehicle>
    <vehicle id="car-flow-route-E4_1_0--E0_0_max-2452033897916848868--7266489842092764092--1-0.23" type="actor-car--4238973458400510012" depart="218.94" departLane="1" departPos="0.00" departSpeed="max" arrivalLane="0" arrivalPos="max">
        <route edges="E4 -E0"/>
    </vehicle>
    <vehicle id="car-flow-route--E1_0_0--E4_0_max--2345656016055477228--7266489842092764092--0-0.35" type="actor-car--4238973458400510012" depart="220.76" departLane="0" departPos="0.00" departSpeed="max" arrivalLane="0" arrivalPos="max">
        <route edges="-E1 -E4"/>
    </vehicle>
    <vehicle id="car-flow-route--E1_0_0--E4_0_max--2345656016055477228--7266489842092764092--0-0.36" type="actor-car--4238973458400510012" depart="227.03" departLane="0" departPos="0.00" departSpeed="max" arrivalLane="0" arrivalPos="max">
        <route edges="-E1 -E4"/>
    </vehicle>
    <vehicle id="car-flow-route-E4_1_0--E0_0_max-2452033897916848868--7266489842092764092--1-0.24" type="actor-car--4238973458400510012" depart="228.43" departLane="1" departPos="0.00" departSpeed="max" arrivalLane="0" arrivalPos="max">
        <route edges="E4 -E0"/>
    </vehicle>
    <vehicle id="car-flow-route--E1_0_0--E4_0_max--2345656016055477228--7266489842092764092--0-0.37" type="actor-car--4238973458400510012" depart="233.29" departLane="0" departPos="0.00" departSpeed="max" arrivalLane="0" arrivalPos="max">
        <route edges="-E1 -E4"/>
    </vehicle>
    <vehicle id="car-flow-route-E4_1_0--E0_0_max-2452033897916848868--7266489842092764092--1-0.25" type="actor-car--4238973458400510012" depart="237.92" departLane="1" departPos="0.00" departSpeed="max" arrivalLane="0" arrivalPos="max">
        <route edges="E4 -E0"/>
    </vehicle>
    <vehicle id="car-flow-route--E1_0_0--E4_0_max--2345656016055477228--7266489842092764092--0-0.38" type="actor-car--4238973458400510012" depart="239.56" departLane="0" departPos="0.00" departSpeed="max" arrivalLane="0" arrivalPos="max">
        <route edges="-E1 -E4"/>
    </vehicle>
    <vehicle id="car-flow-route--E1_0_0--E4_0_max--2345656016055477228--7266489842092764092--0-0.39" type="actor-car--4238973458400510012" depart="245.83" departLane="0" departPos="0.00" departSpeed="max" arrivalLane="0" arrivalPos="max">
        <route edges="-E1 -E4"/>
    </vehicle>
    <vehicle id="car-flow-route-E4_1_0--E0_0_max-2452033897916848868--7266489842092764092--1-0.26" type="actor-car--4238973458400510012" depart="247.40" departLane="1" departPos="0.00" departSpeed="max" arrivalLane="0" arrivalPos="max">
        <route edges="E4 -E0"/>
    </vehicle>
    <vehicle id="car-flow-route--E1_0_0--E4_0_max--2345656016055477228--7266489842092764092--0-0.40" type="actor-car--4238973458400510012" depart="252.10" departLane="0" departPos="0.00" departSpeed="max" arrivalLane="0" arrivalPos="max">
        <route edges="-E1 -E4"/>
    </vehicle>
    <vehicle id="car-flow-route-E4_1_0--E0_0_max-2452033897916848868--7266489842092764092--1-0.27" type="actor-car--4238973458400510012" depart="256.89" departLane="1" departPos="0.00" departSpeed="max" arrivalLane="0" arrivalPos="max">
        <route edges="E4 -E0"/>
    </vehicle>
    <vehicle id="car-flow-route--E1_0_0--E4_0_max--2345656016055477228--7266489842092764092--0-0.41" type="actor-car--4238973458400510012" depart="258.37" departLane="0" departPos="0.00" departSpeed="max" arrivalLane="0" arrivalPos="max">
        <route edges="-E1 -E4"/>
    </vehicle>
    <vehicle id="car-flow-route--E1_0_0--E4_0_max--2345656016055477228--7266489842092764092--0-0.42" type="actor-car--4238973458400510012" depart="264.63" departLane="0" departPos="0.00" departSpeed="max" arrivalLane="0" arrivalPos="max">
        <route edges="-E1 -E4"/>
    </vehicle>
    <vehicle id="car-flow-route-E4_1_0--E0_0_max-2452033897916848868--7266489842092764092--1-0.28" type="actor-car--4238973458400510012" depart="266.38" departLane="1" departPos="0.00" departSpeed="max" arrivalLane="0" arrivalPos="max">
        <route edges="E4 -E0"/>
    </vehicle>
    <vehicle id="car-flow-route--E1_0_0--E4_0_max--2345656016055477228--7266489842092764092--0-0.43" type="actor-car--4238973458400510012" depart="270.90" departLane="0" departPos="0.00" departSpeed="max" arrivalLane="0" arrivalPos="max">
        <route edges="-E1 -E4"/>
    </vehicle>
    <vehicle id="car-flow-route-E4_1_0--E0_0_max-2452033897916848868--7266489842092764092--1-0.29" type="actor-car--4238973458400510012" depart="275.86" departLane="1" departPos="0.00" departSpeed="max" arrivalLane="0" arrivalPos="max">
        <route edges="E4 -E0"/>
    </vehicle>
    <vehicle id="car-flow-route--E1_0_0--E4_0_max--2345656016055477228--7266489842092764092--0-0.44" type="actor-car--4238973458400510012" depart="277.17" departLane="0" departPos="0.00" departSpeed="max" arrivalLane="0" arrivalPos="max">
        <route edges="-E1 -E4"/>
    </vehicle>
    <vehicle id="car-flow-route--E1_0_0--E4_0_max--2345656016055477228--7266489842092764092--0-0.45" type="actor-car--4238973458400510012" depart="283.44" departLane="0" departPos="0.00" departSpeed="max" arrivalLane="0" arrivalPos="max">
        <route edges="-E1 -E4"/>
    </vehicle>
    <vehicle id="car-flow-route-E4_1_0--E0_0_max-2452033897916848868--7266489842092764092--1-0.30" type="actor-car--4238973458400510012" depart="285.35" departLane="1" departPos="0.00" departSpeed="max" arrivalLane="0" arrivalPos="max">
        <route edges="E4 -E0"/>
    </vehicle>
    <vehicle id="car-flow-route--E1_0_0--E4_0_max--2345656016055477228--7266489842092764092--0-0.46" type="actor-car--4238973458400510012" depart="289.71" departLane="0" departPos="0.00" departSpeed="max" arrivalLane="0" arrivalPos="max">
        <route edges="-E1 -E4"/>
    </vehicle>
    <vehicle id="car-flow-route-E4_1_0--E0_0_max-2452033897916848868--7266489842092764092--1-0.31" type="actor-car--4238973458400510012" depart="294.84" departLane="1" departPos="0.00" departSpeed="max" arrivalLane="0" arrivalPos="max">
        <route edges="E4 -E0"/>
    </vehicle>
    <vehicle id="car-flow-route--E1_0_0--E4_0_max--2345656016055477228--7266489842092764092--0-0.47" type="actor-car--4238973458400510012" depart="295.97" departLane="0" departPos="0.00" departSpeed="max" arrivalLane="0" arrivalPos="max">
        <route edges="-E1 -E4"/>
    </vehicle>
    <vehicle id="car-flow-route--E1_0_0--E4_0_max--2345656016055477228--7266489842092764092--0-0.48" type="actor-car--4238973458400510012" depart="302.24" departLane="0" departPos="0.00" departSpeed="max" arrivalLane="0" arrivalPos="max">
        <route edges="-E1 -E4"/>
    </vehicle>
    <vehicle id="car-flow-route-E4_1_0--E0_0_max-2452033897916848868--7266489842092764092--1-0.32" type="actor-car--4238973458400510012" depart="304.32" departLane="1" departPos="0.00" departSpeed="max" arrivalLane="0" arrivalPos="max">
        <route edges="E4 -E0"/>
    </vehicle>
    <vehicle id="car-flow-route--E1_0_0--E4_0_max--2345656016055477228--7266489842092764092--0-0.49" type="actor-car--4238973458400510012" depart="308.51" departLane="0" departPos="0.00" departSpeed="max" arrivalLane="0" arrivalPos="max">
        <route edges="-E1 -E4"/>
    </vehicle>
    <vehicle id="car-flow-route-E4_1_0--E0_0_max-2452033897916848868--7266489842092764092--1-0.33" type="actor-car--4238973458400510012" depart="313.81" departLane="1" departPos="0.00" departSpeed="max" arrivalLane="0" arrivalPos="max">
        <route edges="E4 -E0"/>
    </vehicle>
    <vehicle id="car-flow-route--E1_0_0--E4_0_max--2345656016055477228--7266489842092764092--0-0.50" type="actor-car--4238973458400510012" depart="314.78" departLane="0" departPos="0.00" departSpeed="max" arrivalLane="0" arrivalPos="max">
        <route edges="-E1 -E4"/>
    </vehicle>
    <vehicle id="car-flow-route--E1_0_0--E4_0_max--2345656016055477228--7266489842092764092--0-0.51" type="actor-car--4238973458400510012" depart="321.05" departLane="0" departPos="0.00" departSpeed="max" arrivalLane="0" arrivalPos="max">
        <route edges="-E1 -E4"/>
    </vehicle>
    <vehicle id="car-flow-route-E4_1_0--E0_0_max-2452033897916848868--7266489842092764092--1-0.34" type="actor-car--4238973458400510012" depart="323.30" departLane="1" departPos="0.00" departSpeed="max" arrivalLane="0" arrivalPos="max">
        <route edges="E4 -E0"/>
    </vehicle>
    <vehicle id="car-flow-route--E1_0_0--E4_0_max--2345656016055477228--7266489842092764092--0-0.52" type="actor-car--4238973458400510012" depart="327.31" departLane="0" departPos="0.00" departSpeed="max" arrivalLane="0" arrivalPos="max">
        <route edges="-E1 -E4"/>
    </vehicle>
    <vehicle id="car-flow-route-E4_1_0--E0_0_max-2452033897916848868--7266489842092764092--1-0.35" type="actor-car--4238973458400510012" depart="332.79" departLane="1" departPos="0.00" departSpeed="max" arrivalLane="0" arrivalPos="max">
        <route edges="E4 -E0"/>
    </vehicle>
    <vehicle id="car-flow-route--E1_0_0--E4_0_max--2345656016055477228--7266489842092764092--0-0.53" type="actor-car--4238973458400510012" depart="333.58" departLane="0" departPos="0.00" departSpeed="max" arrivalLane="0" arrivalPos="max">
        <route edges="-E1 -E4"/>
    </vehicle>
    <vehicle id="car-flow-route--E1_0_0--E4_0_max--2345656016055477228--7266489842092764092--0-0.54" type="actor-car--4238973458400510012" depart="339.85" departLane="0" departPos="0.00" departSpeed="max" arrivalLane="0" arrivalPos="max">
        <route edges="-E1 -E4"/>
    </vehicle>
    <vehicle id="car-flow-route-E4_1_0--E0_0_max-2452033897916848868--7266489842092764092--1-0.36" type="actor-car--4238973458400510012" depart="342.27" departLane="1" departPos="0.00" departSpeed="max" arrivalLane="0" arrivalPos="max">
        <route edges="E4 -E0"/>
    </vehicle>
    <vehicle id="car-flow-route--E1_0_0--E4_0_max--2345656016055477228--7266489842092764092--0-0.55" type="actor-car--4238973458400510012" depart="346.12" departLane="0" departPos="0.00" departSpeed="max" arrivalLane="0" arrivalPos="max">
        <route edges="-E1 -E4"/>
    </vehicle>
    <vehicle id="car-flow-route-E4_1_0--E0_0_max-2452033897916848868--7266489842092764092--1-0.37" type="actor-car--4238973458400510012" depart="351.76" departLane="1" departPos="0.00" departSpeed="max" arrivalLane="0" arrivalPos="max">
        <route edges="E4 -E0"/>
    </vehicle>
    <vehicle id="car-flow-route--E1_0_0--E4_0_max--2345656016055477228--7266489842092764092--0-0.56" type="actor-car--4238973458400510012" depart="352.39" departLane="0" departPos="0.00" departSpeed="max" arrivalLane="0" arrivalPos="max">
        <route edges="-E1 -E4"/>
    </vehicle>
    <vehicle id="car-flow-route--E1_0_0--E4_0_max--2345656016055477228--7266489842092764092--0-0.57" type="actor-car--4238973458400510012" depart="358.65" departLane="0" departPos="0.00" departSpeed="max" arrivalLane="0" arrivalPos="max">
        <route edges="-E1 -E4"/>
    </vehicle>
    <vehicle id="car-flow-route-E4_1_0--E0_0_max-2452033897916848868--7266489842092764092--1-0.38" type="actor-car--4238973458400510012" depart="361.25" departLane="1" departPos="0.00" departSpeed="max" arrivalLane="0" arrivalPos="max">
        <route edges="E4 -E0"/>
    </vehicle>
    <vehicle id="car-flow-route--E1_0_0--E4_0_max--2345656016055477228--7266489842092764092--0-0.58" type="actor-car--4238973458400510012" depart="364.92" departLane="0" departPos="0.00" departSpeed="max" arrivalLane="0" arrivalPos="max">
        <route edges="-E1 -E4"/>
    </vehicle>
    <vehicle id="car-flow-route-E4_1_0--E0_0_max-2452033897916848868--7266489842092764092--1-0.39" type="actor-car--4238973458400510012" depart="370.73" departLane="1" departPos="0.00" departSpeed="max" arrivalLane="0" arrivalPos="max">
        <route edges="E4 -E0"/>
    </vehicle>
    <vehicle id="car-flow-route--E1_0_0--E4_0_max--2345656016055477228--7266489842092764092--0-0.59" type="actor-car--4238973458400510012" depart="371.19" departLane="0" departPos="0.00" departSpeed="max" arrivalLane="0" arrivalPos="max">
        <route edges="-E1 -E4"/>
    </vehicle>