<?xml version="1.0" encoding="UTF-8"?>

<!-- generated on 2023-05-28 21:07:42 by Eclipse SUMO duarouter Version 1.16.0
<configuration xmlns:xsi="http://www.w3.org/2001/XMLSchema-instance" xsi:noNamespaceSchemaLocation="http://sumo.dlr.de/xsd/duarouterConfiguration.xsd">

    <input>
        <net-file value="/home/smarts/scenarios/sumo/intersections/1_to_2lane_left_turn_t_agents_1/map.net.xml"/>
        <route-files value="/tmp/tmpd6xzssgo/trips.trips.xml"/>
    </input>

    <output>
        <output-file value="/home/smarts/scenarios/sumo/intersections/1_to_2lane_left_turn_t_agents_1/build/traffic/244.rou.xml"/>
    </output>

    <processing>
        <unsorted-input value="true"/>
        <repair value="true"/>
    </processing>

    <report>
        <error-log value="/root/.smarts/_duarouter_routing/traffic/244.log"/>
        <no-step-log value="true"/>
    </report>

    <random_number>
        <seed value="42"/>
    </random_number>

</configuration>
-->

<routes xmlns:xsi="http://www.w3.org/2001/XMLSchema-instance" xsi:noNamespaceSchemaLocation="http://sumo.dlr.de/xsd/routes_file.xsd">
    <vType id="actor-car--4238973458400510012" minGap="2.50" maxSpeed="55.50" speedFactor="normc(1.00,0.10,0.20,2.00)" vClass="passenger" accel="2.6" decel="4.5" sigma="0.5"/>
    <vehicle id="car-flow-route-E0_0_0-E1_1_max-6371496855813406146--7266489842092764092--1-0.0" type="actor-car--4238973458400510012" depart="1.20" departLane="0" departPos="0.00" departSpeed="max" arrivalLane="1" arrivalPos="max">
        <route edges="E0 E1"/>
    </vehicle>
    <vehicle id="car-flow-route--E1_1_0--E4_1_max-248899497872519462--7266489842092764092--0-0.0" type="actor-car--4238973458400510012" depart="2.29" departLane="1" departPos="0.00" departSpeed="max" arrivalLane="1" arrivalPos="max">
        <route edges="-E1 -E4"/>
    </vehicle>
    <vehicle id="car-flow-route--E1_1_0--E4_1_max-248899497872519462--7266489842092764092--0-0.1" type="actor-car--4238973458400510012" depart="9.24" departLane="1" departPos="0.00" departSpeed="max" arrivalLane="1" arrivalPos="max">
        <route edges="-E1 -E4"/>
    </vehicle>
    <vehicle id="car-flow-route-E0_0_0-E1_1_max-6371496855813406146--7266489842092764092--1-0.1" type="actor-car--4238973458400510012" depart="9.99" departLane="0" departPos="0.00" departSpeed="max" arrivalLane="1" arrivalPos="max">
        <route edges="E0 E1"/>
    </vehicle>
    <vehicle id="car-flow-route--E1_1_0--E4_1_max-248899497872519462--7266489842092764092--0-0.2" type="actor-car--4238973458400510012" depart="16.18" departLane="1" departPos="0.00" departSpeed="max" arrivalLane="1" arrivalPos="max">
        <route edges="-E1 -E4"/>
    </vehicle>
    <vehicle id="car-flow-route-E0_0_0-E1_1_max-6371496855813406146--7266489842092764092--1-0.2" type="actor-car--4238973458400510012" depart="18.77" departLane="0" departPos="0.00" departSpeed="max" arrivalLane="1" arrivalPos="max">
        <route edges="E0 E1"/>
    </vehicle>
    <vehicle id="car-flow-route--E1_1_0--E4_1_max-248899497872519462--7266489842092764092--0-0.3" type="actor-car--4238973458400510012" depart="23.13" departLane="1" departPos="0.00" departSpeed="max" arrivalLane="1" arrivalPos="max">
        <route edges="-E1 -E4"/>
    </vehicle>
    <vehicle id="car-flow-route-E0_0_0-E1_1_max-6371496855813406146--7266489842092764092--1-0.3" type="actor-car--4238973458400510012" depart="27.56" departLane="0" departPos="0.00" departSpeed="max" arrivalLane="1" arrivalPos="max">
        <route edges="E0 E1"/>
    </vehicle>
    <vehicle id="car-flow-route--E1_1_0--E4_1_max-248899497872519462--7266489842092764092--0-0.4" type="actor-car--4238973458400510012" depart="30.08" departLane="1" departPos="0.00" departSpeed="max" arrivalLane="1" arrivalPos="max">
        <route edges="-E1 -E4"/>
    </vehicle>
    <vehicle id="car-flow-route-E0_0_0-E1_1_max-6371496855813406146--7266489842092764092--1-0.4" type="actor-car--4238973458400510012" depart="36.34" departLane="0" departPos="0.00" departSpeed="max" arrivalLane="1" arrivalPos="max">
        <route edges="E0 E1"/>
    </vehicle>
    <vehicle id="car-flow-route--E1_1_0--E4_1_max-248899497872519462--7266489842092764092--0-0.5" type="actor-car--4238973458400510012" depart="37.02" departLane="1" departPos="0.00" departSpeed="max" arrivalLane="1" arrivalPos="max">
        <route edges="-E1 -E4"/>
    </vehicle>
    <vehicle id="car-flow-route--E1_1_0--E4_1_max-248899497872519462--7266489842092764092--0-0.6" type="actor-car--4238973458400510012" depart="43.97" departLane="1" departPos="0.00" departSpeed="max" arrivalLane="1" arrivalPos="max">
        <route edges="-E1 -E4"/>
    </vehicle>
    <vehicle id="car-flow-route-E0_0_0-E1_1_max-6371496855813406146--7266489842092764092--1-0.5" type="actor-car--4238973458400510012" depart="45.13" departLane="0" departPos="0.00" departSpeed="max" arrivalLane="1" arrivalPos="max">
        <route edges="E0 E1"/>
    </vehicle>
    <vehicle id="car-flow-route--E1_1_0--E4_1_max-248899497872519462--7266489842092764092--0-0.7" type="actor-car--4238973458400510012" depart="50.91" departLane="1" departPos="0.00" departSpeed="max" arrivalLane="1" arrivalPos="max">
        <route edges="-E1 -E4"/>
    </vehicle>
    <vehicle id="car-flow-route-E0_0_0-E1_1_max-6371496855813406146--7266489842092764092--1-0.6" type="actor-car--4238973458400510012" depart="53.91" departLane="0" departPos="0.00" departSpeed="max" arrivalLane="1" arrivalPos="max">
        <route edges="E0 E1"/>
    </vehicle>
    <vehicle id="car-flow-route--E1_1_0--E4_1_max-248899497872519462--7266489842092764092--0-0.8" type="actor-car--4238973458400510012" depart="57.86" departLane="1" departPos="0.00" departSpeed="max" arrivalLane="1" arrivalPos="max">
        <route edges="-E1 -E4"/>
    </vehicle>
    <vehicle id="car-flow-route-E0_0_0-E1_1_max-6371496855813406146--7266489842092764092--1-0.7" type="actor-car--4238973458400510012" depart="62.70" departLane="0" departPos="0.00" departSpeed="max" arrivalLane="1" arrivalPos="max">
        <route edges="E0 E1"/>
    </vehicle>
    <vehicle id="car-flow-route--E1_1_0--E4_1_max-248899497872519462--7266489842092764092--0-0.9" type="actor-car--4238973458400510012" depart="64.81" departLane="1" departPos="0.00" departSpeed="max" arrivalLane="1" arrivalPos="max">
        <route edges="-E1 -E4"/>
    </vehicle>
    <vehicle id="car-flow-route-E0_0_0-E1_1_max-6371496855813406146--7266489842092764092--1-0.8" type="actor-car--4238973458400510012" depart="71.48" departLane="0" departPos="0.00" departSpeed="max" arrivalLane="1" arrivalPos="max">
        <route edges="E0 E1"/>
    </vehicle>
    <vehicle id="car-flow-route--E1_1_0--E4_1_max-248899497872519462--7266489842092764092--0-0.10" type="actor-car--4238973458400510012" depart="71.75" departLane="1" departPos="0.00" departSpeed="max" arrivalLane="1" arrivalPos="max">
        <route edges="-E1 -E4"/>
    </vehicle>
    <vehicle id="car-flow-route--E1_1_0--E4_1_max-248899497872519462--7266489842092764092--0-0.11" type="actor-car--4238973458400510012" depart="78.70" departLane="1" departPos="0.00" departSpeed="max" arrivalLane="1" arrivalPos="max">
        <route edges="-E1 -E4"/>
    </vehicle>
    <vehicle id="car-flow-route-E0_0_0-E1_1_max-6371496855813406146--7266489842092764092--1-0.9" type="actor-car--4238973458400510012" depart="80.27" departLane="0" departPos="0.00" departSpeed="max" arrivalLane="1" arrivalPos="max">
        <route edges="E0 E1"/>
    </vehicle>
    <vehicle id="car-flow-route--E1_1_0--E4_1_max-248899497872519462--7266489842092764092--0-0.12" type="actor-car--4238973458400510012" depart="85.64" departLane="1" departPos="0.00" departSpeed="max" arrivalLane="1" arrivalPos="max">
        <route edges="-E1 -E4"/>
    </vehicle>
    <vehicle id="car-flow-route-E0_0_0-E1_1_max-6371496855813406146--7266489842092764092--1-0.10" type="actor-car--4238973458400510012" depart="89.05" departLane="0" departPos="0.00" departSpeed="max" arrivalLane="1" arrivalPos="max">
        <route edges="E0 E1"/>
    </vehicle>
    <vehicle id="car-flow-route--E1_1_0--E4_1_max-248899497872519462--7266489842092764092--0-0.13" type="actor-car--4238973458400510012" depart="92.59" departLane="1" departPos="0.00" departSpeed="max" arrivalLane="1" arrivalPos="max">
        <route edges="-E1 -E4"/>
    </vehicle>
    <vehicle id="car-flow-route-E0_0_0-E1_1_max-6371496855813406146--7266489842092764092--1-0.11" type="actor-car--4238973458400510012" depart="97.84" departLane="0" departPos="0.00" departSpeed="max" arrivalLane="1" arrivalPos="max">
        <route edges="E0 E1"/>
    </vehicle>
    <vehicle id="car-flow-route--E1_1_0--E4_1_max-248899497872519462--7266489842092764092--0-0.14" type="actor-car--4238973458400510012" depart="99.54" departLane="1" departPos="0.00" departSpeed="max" arrivalLane="1" arrivalPos="max">
        <route edges="-E1 -E4"/>
    </vehicle>
    <vehicle id="car-flow-route--E1_1_0--E4_1_max-248899497872519462--7266489842092764092--0-0.15" type="actor-car--4238973458400510012" depart="106.48" departLane="1" departPos="0.00" departSpeed="max" arrivalLane="1" arrivalPos="max">
        <route edges="-E1 -E4"/>
    </vehicle>
    <vehicle id="car-flow-route-E0_0_0-E1_1_max-6371496855813406146--7266489842092764092--1-0.12" type="actor-car--4238973458400510012" depart="106.62" departLane="0" departPos="0.00" departSpeed="max" arrivalLane="1" arrivalPos="max">
        <route edges="E0 E1"/>
    </vehicle>
    <vehicle id="car-flow-route--E1_1_0--E4_1_max-248899497872519462--7266489842092764092--0-0.16" type="actor-car--4238973458400510012" depart="113.43" departLane="1" departPos="0.00" departSpeed="max" arrivalLane="1" arrivalPos="max">
        <route edges="-E1 -E4"/>
    </vehicle>
    <vehicle id="car-flow-route-E0_0_0-E1_1_max-6371496855813406146--7266489842092764092--1-0.13" type="actor-car--4238973458400510012" depart="115.41" departLane="0" departPos="0.00" departSpeed="max" arrivalLane="1" arrivalPos="max">
        <route edges="E0 E1"/>
    </vehicle>
    <vehicle id="car-flow-route--E1_1_0--E4_1_max-248899497872519462--7266489842092764092--0-0.17" type="actor-car--4238973458400510012" depart="120.37" departLane="1" departPos="0.00" departSpeed="max" arrivalLane="1" arrivalPos="max">
        <route edges="-E1 -E4"/>
    </vehicle>
    <vehicle id="car-flow-route-E0_0_0-E1_1_max-6371496855813406146--7266489842092764092--1-0.14" type="actor-car--4238973458400510012" depart="124.19" departLane="0" departPos="0.00" departSpeed="max" arrivalLane="1" arrivalPos="max">
        <route edges="E0 E1"/>
    </vehicle>
    <vehicle id="car-flow-route--E1_1_0--E4_1_max-248899497872519462--7266489842092764092--0-0.18" type="actor-car--4238973458400510012" depart="127.32" departLane="1" departPos="0.00" departSpeed="max" arrivalLane="1" arrivalPos="max">
        <route edges="-E1 -E4"/>
    </vehicle>
    <vehicle id="car-flow-route-E0_0_0-E1_1_max-6371496855813406146--7266489842092764092--1-0.15" type="actor-car--4238973458400510012" depart="132.98" departLane="0" departPos="0.00" departSpeed="max" arrivalLane="1" arrivalPos="max">
        <route edges="E0 E1"/>
    </vehicle>
    <vehicle id="car-flow-route--E1_1_0--E4_1_max-248899497872519462--7266489842092764092--0-0.19" type="actor-car--4238973458400510012" depart="134.27" departLane="1" departPos="0.00" departSpeed="max" arrivalLane="1" arrivalPos="max">
        <route edges="-E1 -E4"/>
    </vehicle>
    <vehicle id="car-flow-route--E1_1_0--E4_1_max-248899497872519462--7266489842092764092--0-0.20" type="actor-car--4238973458400510012" depart="141.21" departLane="1" departPos="0.00" departSpeed="max" arrivalLane="1" arrivalPos="max">
        <route edges="-E1 -E4"/>
    </vehicle>
    <vehicle id="car-flow-route-E0_0_0-E1_1_max-6371496855813406146--7266489842092764092--1-0.16" type="actor-car--4238973458400510012" depart="141.76" departLane="0" departPos="0.00" departSpeed="max" arrivalLane="1" arrivalPos="max">
        <route edges="E0 E1"/>
    </vehicle>
    <vehicle id="car-flow-route--E1_1_0--E4_1_max-248899497872519462--7266489842092764092--0-0.21" type="actor-car--4238973458400510012" depart="148.16" departLane="1" departPos="0.00" departSpeed="max" arrivalLane="1" arrivalPos="max">
        <route edges="-E1 -E4"/>
    </vehicle>
    <vehicle id="car-flow-route-E0_0_0-E1_1_max-6371496855813406146--7266489842092764092--1-0.17" type="actor-car--4238973458400510012" depart="150.55" departLane="0" departPos="0.00" departSpeed="max" arrivalLane="1" arrivalPos="max">
        <route edges="E0 E1"/>
    </vehicle>
    <vehicle id="car-flow-route--E1_1_0--E4_1_max-248899497872519462--7266489842092764092--0-0.22" type="actor-car--4238973458400510012" depart="155.10" departLane="1" departPos="0.00" departSpeed="max" arrivalLane="1" arrivalPos="max">
        <route edges="-E1 -E4"/>
    </vehicle>
    <vehicle id="car-flow-route-E0_0_0-E1_1_max-6371496855813406146--7266489842092764092--1-0.18" type="actor-car--4238973458400510012" depart="159.33" departLane="0" departPos="0.00" departSpeed="max" arrivalLane="1" arrivalPos="max">
        <route edges="E0 E1"/>
    </vehicle>
    <vehicle id="car-flow-route--E1_1_0--E4_1_max-248899497872519462--7266489842092764092--0-0.23" type="actor-car--4238973458400510012" depart="162.05" departLane="1" departPos="0.00" departSpeed="max" arrivalLane="1" arrivalPos="max">
        <route edges="-E1 -E4"/>
    </vehicle>
    <vehicle id="car-flow-route-E0_0_0-E1_1_max-6371496855813406146--7266489842092764092--1-0.19" type="actor-car--4238973458400510012" depart="168.12" departLane="0" departPos="0.00" departSpeed="max" arrivalLane="1" arrivalPos="max">
        <route edges="E0 E1"/>
    </vehicle>
    <vehicle id="car-flow-route--E1_1_0--E4_1_max-248899497872519462--7266489842092764092--0-0.24" type="actor-car--4238973458400510012" depart="169.00" departLane="1" departPos="0.00" departSpeed="max" arrivalLane="1" arrivalPos="max">
        <route edges="-E1 -E4"/>
    </vehicle>
    <vehicle id="car-flow-route--E1_1_0--E4_1_max-248899497872519462--7266489842092764092--0-0.25" type="actor-car--4238973458400510012" depart="175.94" departLane="1" departPos="0.00" departSpeed="max" arrivalLane="1" arrivalPos="max">
        <route edges="-E1 -E4"/>
    </vehicle>
    <vehicle id="car-flow-route-E0_0_0-E1_1_max-6371496855813406146--7266489842092764092--1-0.20" type="actor-car--4238973458400510012" depart="176.90" departLane="0" departPos="0.00" departSpeed="max" arrivalLane="1" arrivalPos="max">
        <route edges="E0 E1"/>
    </vehicle>
    <vehicle id="car-flow-route--E1_1_0--E4_1_max-248899497872519462--7266489842092764092--0-0.26" type="actor-car--4238973458400510012" depart="182.89" departLane="1" departPos="0.00" departSpeed="max" arrivalLane="1" arrivalPos="max">
        <route edges="-E1 -E4"/>
    </vehicle>
    <vehicle id="car-flow-route-E0_0_0-E1_1_max-6371496855813406146--7266489842092764092--1-0.21" type="actor-car--4238973458400510012" depart="185.69" departLane="0" departPos="0.00" departSpeed="max" arrivalLane="1" arrivalPos="max">
        <route edges="E0 E1"/>
    </vehicle>
    <vehicle id="car-flow-route--E1_1_0--E4_1_max-248899497872519462--7266489842092764092--0-0.27" type="actor-car--4238973458400510012" depart="189.83" departLane="1" departPos="0.00" departSpeed="max" arrivalLane="1" arrivalPos="max">
        <route edges="-E1 -E4"/>
    </vehicle>
    <vehicle id="car-flow-route-E0_0_0-E1_1_max-6371496855813406146--7266489842092764092--1-0.22" type="actor-car--4238973458400510012" depart="194.47" departLane="0" departPos="0.00" departSpeed="max" arrivalLane="1" arrivalPos="max">
        <route edges="E0 E1"/>
    </vehicle>
    <vehicle id="car-flow-route--E1_1_0--E4_1_max-248899497872519462--7266489842092764092--0-0.28" type="actor-car--4238973458400510012" depart="196.78" departLane="1" departPos="0.00" departSpeed="max" arrivalLane="1" arrivalPos="max">
        <route edges="-E1 -E4"/>
    </vehicle>
    <vehicle id="car-flow-route-E0_0_0-E1_1_max-6371496855813406146--7266489842092764092--1-0.23" type="actor-car--4238973458400510012" depart="203.26" departLane="0" departPos="0.00" departSpeed="max" arrivalLane="1" arrivalPos="max">
        <route edges="E0 E1"/>
    </vehicle>
    <vehicle id="car-flow-route--E1_1_0--E4_1_max-248899497872519462--7266489842092764092--0-0.29" type="actor-car--4238973458400510012" depart="203.73" departLane="1" departPos="0.00" departSpeed="max" arrivalLane="1" arrivalPos="max">
        <route edges="-E1 -E4"/>
    </vehicle>
    <vehicle id="car-flow-route--E1_1_0--E4_1_max-248899497872519462--7266489842092764092--0-0.30" type="actor-car--4238973458400510012" depart="210.67" departLane="1" departPos="0.00" departSpeed="max" arrivalLane="1" arrivalPos="max">
        <route edges="-E1 -E4"/>
    </vehicle>
    <vehicle id="car-flow-route-E0_0_0-E1_1_max-6371496855813406146--7266489842092764092--1-0.24" type="actor-car--4238973458400510012" depart="212.04" departLane="0" departPos="0.00" departSpeed="max" arrivalLane="1" arrivalPos="max">
        <route edges="E0 E1"/>
    </vehicle>
    <vehicle id="car-flow-route--E1_1_0--E4_1_max-248899497872519462--7266489842092764092--0-0.31" type="actor-car--4238973458400510012" depart="217.62" departLane="1" departPos="0.00" departSpeed="max" arrivalLane="1" arrivalPos="max">
        <route edges="-E1 -E4"/>
    </vehicle>
    <vehicle id="car-flow-route-E0_0_0-E1_1_max-6371496855813406146--7266489842092764092--1-0.25" type="actor-car--4238973458400510012" depart="220.83" departLane="0" departPos="0.00" departSpeed="max" arrivalLane="1" arrivalPos="max">
        <route edges="E0 E1"/>
    </vehicle>
    <vehicle id="car-flow-route--E1_1_0--E4_1_max-248899497872519462--7266489842092764092--0-0.32" type="actor-car--4238973458400510012" depart="224.56" departLane="1" departPos="0.00" departSpeed="max" arrivalLane="1" arrivalPos="max">
        <route edges="-E1 -E4"/>
    </vehicle>
    <vehicle id="car-flow-route-E0_0_0-E1_1_max-6371496855813406146--7266489842092764092--1-0.26" type="actor-car--4238973458400510012" depart="229.61" departLane="0" departPos="0.00" departSpeed="max" arrivalLane="1" arrivalPos="max">
        <route edges="E0 E1"/>
    </vehicle>
    <vehicle id="car-flow-route--E1_1_0--E4_1_max-248899497872519462--7266489842092764092--0-0.33" type="actor-car--4238973458400510012" depart="231.51" departLane="1" departPos="0.00" departSpeed="max" arrivalLane="1" arrivalPos="max">
        <route edges="-E1 -E4"/>
    </vehicle>
    <vehicle id="car-flow-route-E0_0_0-E1_1_max-6371496855813406146--7266489842092764092--1-0.27" type="actor-car--4238973458400510012" depart="238.40" departLane="0" departPos="0.00" departSpeed="max" arrivalLane="1" arrivalPos="max">
        <route edges="E0 E1"/>
    </vehicle>
    <vehicle id="car-flow-route--E1_1_0--E4_1_max-248899497872519462--7266489842092764092--0-0.34" type="actor-car--4238973458400510012" depart="238.46" departLane="1" departPos="0.00" departSpeed="max" arrivalLane="1" arrivalPos="max">
        <route edges="-E1 -E4"/>
    </vehicle>
    <vehicle id="car-flow-route--E1_1_0--E4_1_max-248899497872519462--7266489842092764092--0-0.35" type="actor-car--4238973458400510012" depart="245.40" departLane="1" departPos="0.00" departSpeed="max" arrivalLane="1" arrivalPos="max">
        <route edges="-E1 -E4"/>
    </vehicle>
    <vehicle id="car-flow-route-E0_0_0-E1_1_max-6371496855813406146--7266489842092764092--1-0.28" type="actor-car--4238973458400510012" depart="247.18" departLane="0" departPos="0.00" departSpeed="max" arrivalLane="1" arrivalPos="max">
        <route edges="E0 E1"/>
    </vehicle>
    <vehicle id="car-flow-route--E1_1_0--E4_1_max-248899497872519462--7266489842092764092--0-0.36" type="actor-car--4238973458400510012" depart="252.35" departLane="1" departPos="0.00" departSpeed="max" arrivalLane="1" arrivalPos="max">
        <route edges="-E1 -E4"/>
    </vehicle>
    <vehicle id="car-flow-route-E0_0_0-E1_1_max-6371496855813406146--7266489842092764092--1-0.29" type="actor-car--4238973458400510012" depart="255.97" departLane="0" departPos="0.00" departSpeed="max" arrivalLane="1" arrivalPos="max">
        <route edges="E0 E1"/>
    </vehicle>
    <vehicle id="car-flow-route--E1_1_0--E4_1_max-248899497872519462--7266489842092764092--0-0.37" type="actor-car--4238973458400510012" depart="259.29" departLane="1" departPos="0.00" departSpeed="max" arrivalLane="1" arrivalPos="max">
        <route edges="-E1 -E4"/>
    </vehicle>
    <vehicle id="car-flow-route-E0_0_0-E1_1_max-6371496855813406146--7266489842092764092--1-0.30" type="actor-car--4238973458400510012" depart="264.75" departLane="0" departPos="0.00" departSpeed="max" arrivalLane="1" arrivalPos="max">
        <route edges="E0 E1"/>
    </vehicle>
    <vehicle id="car-flow-route--E1_1_0--E4_1_max-248899497872519462--7266489842092764092--0-0.38" type="actor-car--4238973458400510012" depart="266.24" departLane="1" departPos="0.00" departSpeed="max" arrivalLane="1" arrivalPos="max">
        <route edges="-E1 -E4"/>
    </vehicle>
    <vehicle id="car-flow-route--E1_1_0--E4_1_max-248899497872519462--7266489842092764092--0-0.39" type="actor-car--4238973458400510012" depart="273.19" departLane="1" departPos="0.00" departSpeed="max" arrivalLane="1" arrivalPos="max">
        <route edges="-E1 -E4"/>
    </vehicle>
    <vehicle id="car-flow-route-E0_0_0-E1_1_max-6371496855813406146--7266489842092764092--1-0.31" type="actor-car--4238973458400510012" depart="273.54" departLane="0" departPos="0.00" departSpeed="max" arrivalLane="1" arrivalPos="max">
        <route edges="E0 E1"/>
    </vehicle>
    <vehicle id="car-flow-route--E1_1_0--E4_1_max-248899497872519462--7266489842092764092--0-0.40" type="actor-car--4238973458400510012" depart="280.13" departLane="1" departPos="0.00" departSpeed="max" arrivalLane="1" arrivalPos="max">
        <route edges="-E1 -E4"/>
    </vehicle>
    <vehicle id="car-flow-route-E0_0_0-E1_1_max-6371496855813406146--7266489842092764092--1-0.32" type="actor-car--4238973458400510012" depart="282.32" departLane="0" departPos="0.00" departSpeed="max" arrivalLane="1" arrivalPos="max">
        <route edges="E0 E1"/>
    </vehicle>
    <vehicle id="car-flow-route--E1_1_0--E4_1_max-248899497872519462--7266489842092764092--0-0.41" type="actor-car--4238973458400510012" depart="287.08" departLane="1" departPos="0.00" departSpeed="max" arrivalLane="1" arrivalPos="max">
        <route edges="-E1 -E4"/>
    </vehicle>
    <vehicle id="car-flow-route-E0_0_0-E1_1_max-6371496855813406146--7266489842092764092--1-0.33" type="actor-car--4238973458400510012" depart="291.11" departLane="0" departPos="0.00" departSpeed="max" arrivalLane="1" arrivalPos="max">
        <route edges="E0 E1"/>
    </vehicle>
    <vehicle id="car-flow-route--E1_1_0--E4_1_max-248899497872519462--7266489842092764092--0-0.42" type="actor-car--4238973458400510012" depart="294.02" departLane="1" departPos="0.00" departSpeed="max" arrivalLane="1" arrivalPos="max">
        <route edges="-E1 -E4"/>
    </vehicle>
    <vehicle id="car-flow-route-E0_0_0-E1_1_max-6371496855813406146--7266489842092764092--1-0.34" type="actor-car--4238973458400510012" depart="299.89" departLane="0" departPos="0.00" departSpeed="max" arrivalLane="1" arrivalPos="max">
        <route edges="E0 E1"/>
    </vehicle>
    <vehicle id="car-flow-route--E1_1_0--E4_1_max-248899497872519462--7266489842092764092--0-0.43" type="actor-car--4238973458400510012" depart="300.97" departLane="1" departPos="0.00" departSpeed="max" arrivalLane="1" arrivalPos="max">
        <route edges="-E1 -E4"/>
    </vehicle>
    <vehicle id="car-flow-route--E1_1_0--E4_1_max-248899497872519462--7266489842092764092--0-0.44" type="actor-car--4238973458400510012" depart="307.92" departLane="1" departPos="0.00" departSpeed="max" arrivalLane="1" arrivalPos="max">
        <route edges="-E1 -E4"/>
    </vehicle>
    <vehicle id="car-flow-route-E0_0_0-E1_1_max-6371496855813406146--7266489842092764092--1-0.35" type="actor-car--4238973458400510012" depart="308.68" departLane="0" departPos="0.00" departSpeed="max" arrivalLane="1" arrivalPos="max">
        <route edges="E0 E1"/>
    </vehicle>
    <vehicle id="car-flow-route--E1_1_0--E4_1_max-248899497872519462--7266489842092764092--0-0.45" type="actor-car--4238973458400510012" depart="314.86" departLane="1" departPos="0.00" departSpeed="max" arrivalLane="1" arrivalPos="max">
        <route edges="-E1 -E4"/>
    </vehicle>
    <vehicle id="car-flow-route-E0_0_0-E1_1_max-6371496855813406146--7266489842092764092--1-0.36" type="actor-car--4238973458400510012" depart="317.46" departLane="0" departPos="0.00" departSpeed="max" arrivalLane="1" arrivalPos="max">
        <route edges="E0 E1"/>
    </vehicle>
    <vehicle id="car-flow-route--E1_1_0--E4_1_max-248899497872519462--7266489842092764092--0-0.46" type="actor-car--4238973458400510012" depart="321.81" departLane="1" departPos="0.00" departSpeed="max" arrivalLane="1" arrivalPos="max">
        <route edges="-E1 -E4"/>
    </vehicle>
    <vehicle id="car-flow-route-E0_0_0-E1_1_max-6371496855813406146--7266489842092764092--1-0.37" type="actor-car--4238973458400510012" depart="326.25" departLane="0" departPos="0.00" departSpeed="max" arrivalLane="1" arrivalPos="max">
        <route edges="E0 E1"/>
    </vehicle>
    <vehicle id="car-flow-route--E1_1_0--E4_1_max-248899497872519462--7266489842092764092--0-0.47" type="actor-car--4238973458400510012" depart="328.75" departLane="1" departPos="0.00" departSpeed="max" arrivalLane="1" arrivalPos="max">
        <route edges="-E1 -E4"/>
    </vehicle>
    <vehicle id="car-flow-route-E0_0_0-E1_1_max-6371496855813406146--7266489842092764092--1-0.38" type="actor-car--4238973458400510012" depart="335.03" departLane="0" departPos="0.00" departSpeed="max" arrivalLane="1" arrivalPos="max">
        <route edges="E0 E1"/>
    </vehicle>
    <vehicle id="car-flow-route--E1_1_0--E4_1_max-248899497872519462--7266489842092764092--0-0.48" type="actor-car--4238973458400510012" depart="335.70" departLane="1" departPos="0.00" departSpeed="max" arrivalLane="1" arrivalPos="max">
        <route edges="-E1 -E4"/>
    </vehicle>
    <vehicle id="car-flow-route--E1_1_0--E4_1_max-248899497872519462--7266489842092764092--0-0.49" type="actor-car--4238973458400510012" depart="342.65" departLane="1" departPos="0.00" departSpeed="max" arrivalLane="1" arrivalPos="max">
        <route edges="-E1 -E4"/>
    </vehicle>
    <vehicle id="car-flow-route-E0_0_0-E1_1_max-6371496855813406146--7266489842092764092--1-0.39" type="actor-car--4238973458400510012" depart="343.82" departLane="0" departPos="0.00" departSpeed="max" arrivalLane="1" arrivalPos="max">
        <route edges="E0 E1"/>
    </vehicle>
    <vehicle id="car-flow-route--E1_1_0--E4_1_max-248899497872519462--7266489842092764092--0-0.50" type="actor-car--4238973458400510012" depart="349.59" departLane="1" departPos="0.00" departSpeed="max" arrivalLane="1" arrivalPos="max">
        <route edges="-E1 -E4"/>
    </vehicle>
    <vehicle id="car-flow-route-E0_0_0-E1_1_max-6371496855813406146--7266489842092764092--1-0.40" type="actor-car--4238973458400510012" depart="352.60" departLane="0" departPos="0.00" departSpeed="max" arrivalLane="1" arrivalPos="max">
        <route edges="E0 E1"/>
    </vehicle>
    <vehicle id="car-flow-route--E1_1_0--E4_1_max-248899497872519462--7266489842092764092--0-0.51" type="actor-car--4238973458400510012" depart="356.54" departLane="1" departPos="0.00" departSpeed="max" arrivalLane="1" arrivalPos="max">
        <route edges="-E1 -E4"/>
    </vehicle>
    <vehicle id="car-flow-route-E0_0_0-E1_1_max-6371496855813406146--7266489842092764092--1-0.41" type="actor-car--4238973458400510012" depart="361.39" departLane="0" departPos="0.00" departSpeed="max" arrivalLane="1" arrivalPos="max">
        <route edges="E0 E1"/>
    </vehicle>
    <vehicle id="car-flow-route--E1_1_0--E4_1_max-248899497872519462--7266489842092764092--0-0.52" type="actor-car--4238973458400510012" depart="363.48" departLane="1" departPos="0.00" departSpeed="max" arrivalLane="1" arrivalPos="max">
        <route edges="-E1 -E4"/>
    </vehicle>
    <vehicle id="car-flow-route-E0_0_0-E1_1_max-6371496855813406146--7266489842092764092--1-0.42" type="actor-car--4238973458400510012" depart="370.17" departLane="0" departPos="0.00" departSpeed="max" arrivalLane="1" arrivalPos="max">
        <route edges="E0 E1"/>
    </vehicle>
    <vehicle id="car-flow-route--E1_1_0--E4_1_max-248899497872519462--7266489842092764092--0-0.53" type="actor-car--4238973458400510012" depart="370.43" departLane="1" departPos="0.00" departSpeed="max" arrivalLane="1" arrivalPos="max">
        <route edges="-E1 -E4"/>
    </vehicle>
    <vehicle id="car-flow-route--E1_1_0--E4_1_max-248899497872519462--7266489842092764092--0-0.54" type="actor-car--4238973458400510012" depart="377.38" departLane="1" departPos="0.00" departSpeed="max" arrivalLane="1" arrivalPos="max">
        <route edges="-E1 -E4"/>
    </vehicle>
    <vehicle id="car-flow-route-E0_0_0-E1_1_max-6371496855813406146--7266489842092764092--1-0.43" type="actor-car--4238973458400510012" depart="378.96" departLane="0" departPos="0.00" departSpeed="max" arrivalLane="1" arrivalPos="max">
        <route edges="E0 E1"/>
    </vehicle>
    <vehicle id="car-flow-route--E1_1_0--E4_1_max-248899497872519462--7266489842092764092--0-0.55" type="actor-car--4238973458400510012" depart="384.32" departLane="1" departPos="0.00" departSpeed="max" arrivalLane="1" arrivalPos="max">
        <route edges="-E1 -E4"/>
    </vehicle>
    <vehicle id="car-flow-route-E0_0_0-E1_1_max-6371496855813406146--7266489842092764092--1-0.44" type="actor-car--4238973458400510012" depart="387.74" departLane="0" departPos="0.00" departSpeed="max" arrivalLane="1" arrivalPos="max">
        <route edges="E0 E1"/>
    </vehicle>