<?xml version="1.0" encoding="UTF-8"?>

<!-- generated on 2023-05-28 21:07:45 by Eclipse SUMO duarouter Version 1.16.0
<configuration xmlns:xsi="http://www.w3.org/2001/XMLSchema-instance" xsi:noNamespaceSchemaLocation="http://sumo.dlr.de/xsd/duarouterConfiguration.xsd">

    <input>
        <net-file value="/home/smarts/scenarios/sumo/intersections/1_to_2lane_left_turn_t_agents_1/map.net.xml"/>
        <route-files value="/tmp/tmpujj854yp/trips.trips.xml"/>
    </input>

    <output>
        <output-file value="/home/smarts/scenarios/sumo/intersections/1_to_2lane_left_turn_t_agents_1/build/traffic/318.rou.xml"/>
    </output>

    <processing>
        <unsorted-input value="true"/>
        <repair value="true"/>
    </processing>

    <report>
        <error-log value="/root/.smarts/_duarouter_routing/traffic/318.log"/>
        <no-step-log value="true"/>
    </report>

    <random_number>
        <seed value="42"/>
    </random_number>

</configuration>
-->

<routes xmlns:xsi="http://www.w3.org/2001/XMLSchema-instance" xsi:noNamespaceSchemaLocation="http://sumo.dlr.de/xsd/routes_file.xsd">
    <vType id="actor-car--4238973458400510012" minGap="2.50" maxSpeed="55.50" speedFactor="normc(1.00,0.10,0.20,2.00)" vClass="passenger" accel="2.6" decel="4.5" sigma="0.5"/>
    <vehicle id="car-flow-route--E1_0_0--E0_0_max--3949343141680771758--7266489842092764092--3-0.0" type="actor-car--4238973458400510012" depart="1.46" departLane="0" departPos="0.00" departSpeed="max" arrivalLane="0" arrivalPos="max">
        <route edges="-E1 -E0"/>
    </vehicle>
    <vehicle id="car-flow-route-E4_0_0-E1_0_max-5581999185648294116--7266489842092764092--0-0.0" type="actor-car--4238973458400510012" depart="1.52" departLane="0" departPos="0.00" departSpeed="max" arrivalLane="0" arrivalPos="max">
        <route edges="E4 E1"/>
    </vehicle>
    <vehicle id="car-flow-route--E1_1_0--E4_1_max-248899497872519462--7266489842092764092--2-0.0" type="actor-car--4238973458400510012" depart="1.85" departLane="1" departPos="0.00" departSpeed="max" arrivalLane="1" arrivalPos="max">
        <route edges="-E1 -E4"/>
    </vehicle>
    <vehicle id="car-flow-route-E4_1_0-E1_1_max--2352894271058968195--7266489842092764092--1-0.0" type="actor-car--4238973458400510012" depart="1.85" departLane="1" departPos="0.00" departSpeed="max" arrivalLane="1" arrivalPos="max">
        <route edges="E4 E1"/>
    </vehicle>
    <vehicle id="car-flow-route--E1_1_0--E4_1_max-248899497872519462--7266489842092764092--2-0.1" type="actor-car--4238973458400510012" depart="9.05" departLane="1" departPos="0.00" departSpeed="max" arrivalLane="1" arrivalPos="max">
        <route edges="-E1 -E4"/>
    </vehicle>
    <vehicle id="car-flow-route--E1_0_0--E0_0_max--3949343141680771758--7266489842092764092--3-0.1" type="actor-car--4238973458400510012" depart="9.56" departLane="0" departPos="0.00" departSpeed="max" arrivalLane="0" arrivalPos="max">
        <route edges="-E1 -E0"/>
    </vehicle>
    <vehicle id="car-flow-route-E4_1_0-E1_1_max--2352894271058968195--7266489842092764092--1-0.1" type="actor-car--4238973458400510012" depart="10.59" departLane="1" departPos="0.00" departSpeed="max" arrivalLane="1" arrivalPos="max">
        <route edges="E4 E1"/>
    </vehicle>
    <vehicle id="car-flow-route-E4_0_0-E1_0_max-5581999185648294116--7266489842092764092--0-0.1" type="actor-car--4238973458400510012" depart="13.41" departLane="0" departPos="0.00" departSpeed="max" arrivalLane="0" arrivalPos="max">
        <route edges="E4 E1"/>
    </vehicle>
    <vehicle id="car-flow-route--E1_1_0--E4_1_max-248899497872519462--7266489842092764092--2-0.2" type="actor-car--4238973458400510012" depart="16.25" departLane="1" departPos="0.00" departSpeed="max" arrivalLane="1" arrivalPos="max">
        <route edges="-E1 -E4"/>
    </vehicle>
    <vehicle id="car-flow-route--E1_0_0--E0_0_max--3949343141680771758--7266489842092764092--3-0.2" type="actor-car--4238973458400510012" depart="17.65" departLane="0" departPos="0.00" departSpeed="max" arrivalLane="0" arrivalPos="max">
        <route edges="-E1 -E0"/>
    </vehicle>
    <vehicle id="car-flow-route-E4_1_0-E1_1_max--2352894271058968195--7266489842092764092--1-0.2" type="actor-car--4238973458400510012" depart="19.33" departLane="1" departPos="0.00" departSpeed="max" arrivalLane="1" arrivalPos="max">
        <route edges="E4 E1"/>
    </vehicle>
    <vehicle id="car-flow-route--E1_1_0--E4_1_max-248899497872519462--7266489842092764092--2-0.3" type="actor-car--4238973458400510012" depart="23.45" departLane="1" departPos="0.00" departSpeed="max" arrivalLane="1" arrivalPos="max">
        <route edges="-E1 -E4"/>
    </vehicle>
    <vehicle id="car-flow-route-E4_0_0-E1_0_max-5581999185648294116--7266489842092764092--0-0.2" type="actor-car--4238973458400510012" depart="25.30" departLane="0" departPos="0.00" departSpeed="max" arrivalLane="0" arrivalPos="max">
        <route edges="E4 E1"/>
    </vehicle>
    <vehicle id="car-flow-route--E1_0_0--E0_0_max--3949343141680771758--7266489842092764092--3-0.3" type="actor-car--4238973458400510012" depart="25.74" departLane="0" departPos="0.00" departSpeed="max" arrivalLane="0" arrivalPos="max">
        <route edges="-E1 -E0"/>
    </vehicle>
    <vehicle id="car-flow-route-E4_1_0-E1_1_max--2352894271058968195--7266489842092764092--1-0.3" type="actor-car--4238973458400510012" depart="28.07" departLane="1" departPos="0.00" departSpeed="max" arrivalLane="1" arrivalPos="max">
        <route edges="E4 E1"/>
    </vehicle>
    <vehicle id="car-flow-route--E1_1_0--E4_1_max-248899497872519462--7266489842092764092--2-0.4" type="actor-car--4238973458400510012" depart="30.65" departLane="1" departPos="0.00" departSpeed="max" arrivalLane="1" arrivalPos="max">
        <route edges="-E1 -E4"/>
    </vehicle>
    <vehicle id="car-flow-route--E1_0_0--E0_0_max--3949343141680771758--7266489842092764092--3-0.4" type="actor-car--4238973458400510012" depart="33.83" departLane="0" departPos="0.00" departSpeed="max" arrivalLane="0" arrivalPos="max">
        <route edges="-E1 -E0"/>
    </vehicle>
    <vehicle id="car-flow-route-E4_1_0-E1_1_max--2352894271058968195--7266489842092764092--1-0.4" type="actor-car--4238973458400510012" depart="36.81" departLane="1" departPos="0.00" departSpeed="max" arrivalLane="1" arrivalPos="max">
        <route edges="E4 E1"/>
    </vehicle>
    <vehicle id="car-flow-route-E4_0_0-E1_0_max-5581999185648294116--7266489842092764092--0-0.3" type="actor-car--4238973458400510012" depart="37.19" departLane="0" departPos="0.00" departSpeed="max" arrivalLane="0" arrivalPos="max">
        <route edges="E4 E1"/>
    </vehicle>
    <vehicle id="car-flow-route--E1_1_0--E4_1_max-248899497872519462--7266489842092764092--2-0.5" type="actor-car--4238973458400510012" depart="37.85" departLane="1" departPos="0.00" departSpeed="max" arrivalLane="1" arrivalPos="max">
        <route edges="-E1 -E4"/>
    </vehicle>
    <vehicle id="car-flow-route--E1_0_0--E0_0_max--3949343141680771758--7266489842092764092--3-0.5" type="actor-car--4238973458400510012" depart="41.92" departLane="0" departPos="0.00" departSpeed="max" arrivalLane="0" arrivalPos="max">
        <route edges="-E1 -E0"/>
    </vehicle>
    <vehicle id="car-flow-route--E1_1_0--E4_1_max-248899497872519462--7266489842092764092--2-0.6" type="actor-car--4238973458400510012" depart="45.05" departLane="1" departPos="0.00" departSpeed="max" arrivalLane="1" arrivalPos="max">
        <route edges="-E1 -E4"/>
    </vehicle>
    <vehicle id="car-flow-route-E4_1_0-E1_1_max--2352894271058968195--7266489842092764092--1-0.5" type="actor-car--4238973458400510012" depart="45.55" departLane="1" departPos="0.00" departSpeed="max" arrivalLane="1" arrivalPos="max">
        <route edges="E4 E1"/>
    </vehicle>
    <vehicle id="car-flow-route-E4_0_0-E1_0_max-5581999185648294116--7266489842092764092--0-0.4" type="actor-car--4238973458400510012" depart="49.08" departLane="0" departPos="0.00" departSpeed="max" arrivalLane="0" arrivalPos="max">
        <route edges="E4 E1"/>
    </vehicle>
    <vehicle id="car-flow-route--E1_0_0--E0_0_max--3949343141680771758--7266489842092764092--3-0.6" type="actor-car--4238973458400510012" depart="50.01" departLane="0" departPos="0.00" departSpeed="max" arrivalLane="0" arrivalPos="max">
        <route edges="-E1 -E0"/>
    </vehicle>
    <vehicle id="car-flow-route--E1_1_0--E4_1_max-248899497872519462--7266489842092764092--2-0.7" type="actor-car--4238973458400510012" depart="52.25" departLane="1" departPos="0.00" departSpeed="max" arrivalLane="1" arrivalPos="max">
        <route edges="-E1 -E4"/>
    </vehicle>
    <vehicle id="car-flow-route-E4_1_0-E1_1_max--2352894271058968195--7266489842092764092--1-0.6" type="actor-car--4238973458400510012" depart="54.29" departLane="1" departPos="0.00" departSpeed="max" arrivalLane="1" arrivalPos="max">
        <route edges="E4 E1"/>
    </vehicle>
    <vehicle id="car-flow-route--E1_0_0--E0_0_max--3949343141680771758--7266489842092764092--3-0.7" type="actor-car--4238973458400510012" depart="58.10" departLane="0" departPos="0.00" departSpeed="max" arrivalLane="0" arrivalPos="max">
        <route edges="-E1 -E0"/>
    </vehicle>
    <vehicle id="car-flow-route--E1_1_0--E4_1_max-248899497872519462--7266489842092764092--2-0.8" type="actor-car--4238973458400510012" depart="59.45" departLane="1" departPos="0.00" departSpeed="max" arrivalLane="1" arrivalPos="max">
        <route edges="-E1 -E4"/>
    </vehicle>
    <vehicle id="car-flow-route-E4_0_0-E1_0_max-5581999185648294116--7266489842092764092--0-0.5" type="actor-car--4238973458400510012" depart="60.97" departLane="0" departPos="0.00" departSpeed="max" arrivalLane="0" arrivalPos="max">
        <route edges="E4 E1"/>
    </vehicle>
    <vehicle id="car-flow-route-E4_1_0-E1_1_max--2352894271058968195--7266489842092764092--1-0.7" type="actor-car--4238973458400510012" depart="63.03" departLane="1" departPos="0.00" departSpeed="max" arrivalLane="1" arrivalPos="max">
        <route edges="E4 E1"/>
    </vehicle>
    <vehicle id="car-flow-route--E1_0_0--E0_0_max--3949343141680771758--7266489842092764092--3-0.8" type="actor-car--4238973458400510012" depart="66.19" departLane="0" departPos="0.00" departSpeed="max" arrivalLane="0" arrivalPos="max">
        <route edges="-E1 -E0"/>
    </vehicle>
    <vehicle id="car-flow-route--E1_1_0--E4_1_max-248899497872519462--7266489842092764092--2-0.9" type="actor-car--4238973458400510012" depart="66.65" departLane="1" departPos="0.00" departSpeed="max" arrivalLane="1" arrivalPos="max">
        <route edges="-E1 -E4"/>
    </vehicle>
    <vehicle id="car-flow-route-E4_1_0-E1_1_max--2352894271058968195--7266489842092764092--1-0.8" type="actor-car--4238973458400510012" depart="71.77" departLane="1" departPos="0.00" departSpeed="max" arrivalLane="1" arrivalPos="max">
        <route edges="E4 E1"/>
    </vehicle>
    <vehicle id="car-flow-route-E4_0_0-E1_0_max-5581999185648294116--7266489842092764092--0-0.6" type="actor-car--4238973458400510012" depart="72.86" departLane="0" departPos="0.00" departSpeed="max" arrivalLane="0" arrivalPos="max">
        <route edges="E4 E1"/>
    </vehicle>
    <vehicle id="car-flow-route--E1_1_0--E4_1_max-248899497872519462--7266489842092764092--2-0.10" type="actor-car--4238973458400510012" depart="73.85" departLane="1" departPos="0.00" departSpeed="max" arrivalLane="1" arrivalPos="max">
        <route edges="-E1 -E4"/>
    </vehicle>
    <vehicle id="car-flow-route--E1_0_0--E0_0_max--3949343141680771758--7266489842092764092--3-0.9" type="actor-car--4238973458400510012" depart="74.28" departLane="0" departPos="0.00" departSpeed="max" arrivalLane="0" arrivalPos="max">
        <route edges="-E1 -E0"/>
    </vehicle>
    <vehicle id="car-flow-route-E4_1_0-E1_1_max--2352894271058968195--7266489842092764092--1-0.9" type="actor-car--4238973458400510012" depart="80.51" departLane="1" departPos="0.00" departSpeed="max" arrivalLane="1" arrivalPos="max">
        <route edges="E4 E1"/>
    </vehicle>
    <vehicle id="car-flow-route--E1_1_0--E4_1_max-248899497872519462--7266489842092764092--2-0.11" type="actor-car--4238973458400510012" depart="81.05" departLane="1" departPos="0.00" departSpeed="max" arrivalLane="1" arrivalPos="max">
        <route edges="-E1 -E4"/>
    </vehicle>
    <vehicle id="car-flow-route--E1_0_0--E0_0_max--3949343141680771758--7266489842092764092--3-0.10" type="actor-car--4238973458400510012" depart="82.37" departLane="0" departPos="0.00" departSpeed="max" arrivalLane="0" arrivalPos="max">
        <route edges="-E1 -E0"/>
    </vehicle>
    <vehicle id="car-flow-route-E4_0_0-E1_0_max-5581999185648294116--7266489842092764092--0-0.7" type="actor-car--4238973458400510012" depart="84.75" departLane="0" departPos="0.00" departSpeed="max" arrivalLane="0" arrivalPos="max">
        <route edges="E4 E1"/>
    </vehicle>
    <vehicle id="car-flow-route--E1_1_0--E4_1_max-248899497872519462--7266489842092764092--2-0.12" type="actor-car--4238973458400510012" depart="88.25" departLane="1" departPos="0.00" departSpeed="max" arrivalLane="1" arrivalPos="max">
        <route edges="-E1 -E4"/>
    </vehicle>
    <vehicle id="car-flow-route-E4_1_0-E1_1_max--2352894271058968195--7266489842092764092--1-0.10" type="actor-car--4238973458400510012" depart="89.24" departLane="1" departPos="0.00" departSpeed="max" arrivalLane="1" arrivalPos="max">
        <route edges="E4 E1"/>
    </vehicle>
    <vehicle id="car-flow-route--E1_0_0--E0_0_max--3949343141680771758--7266489842092764092--3-0.11" type="actor-car--4238973458400510012" depart="90.47" departLane="0" departPos="0.00" departSpeed="max" arrivalLane="0" arrivalPos="max">
        <route edges="-E1 -E0"/>
    </vehicle>
    <vehicle id="car-flow-route--E1_1_0--E4_1_max-248899497872519462--7266489842092764092--2-0.13" type="actor-car--4238973458400510012" depart="95.45" departLane="1" departPos="0.00" departSpeed="max" arrivalLane="1" arrivalPos="max">
        <route edges="-E1 -E4"/>
    </vehicle>
    <vehicle id="car-flow-route-E4_0_0-E1_0_max-5581999185648294116--7266489842092764092--0-0.8" type="actor-car--4238973458400510012" depart="96.65" departLane="0" departPos="0.00" departSpeed="max" arrivalLane="0" arrivalPos="max">
        <route edges="E4 E1"/>
    </vehicle>
    <vehicle id="car-flow-route-E4_1_0-E1_1_max--2352894271058968195--7266489842092764092--1-0.11" type="actor-car--4238973458400510012" depart="97.98" departLane="1" departPos="0.00" departSpeed="max" arrivalLane="1" arrivalPos="max">
        <route edges="E4 E1"/>
    </vehicle>
    <vehicle id="car-flow-route--E1_0_0--E0_0_max--3949343141680771758--7266489842092764092--3-0.12" type="actor-car--4238973458400510012" depart="98.56" departLane="0" departPos="0.00" departSpeed="max" arrivalLane="0" arrivalPos="max">
        <route edges="-E1 -E0"/>
    </vehicle>
    <vehicle id="car-flow-route--E1_1_0--E4_1_max-248899497872519462--7266489842092764092--2-0.14" type="actor-car--4238973458400510012" depart="102.65" departLane="1" departPos="0.00" departSpeed="max" arrivalLane="1" arrivalPos="max">
        <route edges="-E1 -E4"/>
    </vehicle>
    <vehicle id="car-flow-route--E1_0_0--E0_0_max--3949343141680771758--7266489842092764092--3-0.13" type="actor-car--4238973458400510012" depart="106.65" departLane="0" departPos="0.00" departSpeed="max" arrivalLane="0" arrivalPos="max">
        <route edges="-E1 -E0"/>
    </vehicle>
    <vehicle id="car-flow-route-E4_1_0-E1_1_max--2352894271058968195--7266489842092764092--1-0.12" type="actor-car--4238973458400510012" depart="106.72" departLane="1" departPos="0.00" departSpeed="max" arrivalLane="1" arrivalPos="max">
        <route edges="E4 E1"/>
    </vehicle>
    <vehicle id="car-flow-route-E4_0_0-E1_0_max-5581999185648294116--7266489842092764092--0-0.9" type="actor-car--4238973458400510012" depart="108.54" departLane="0" departPos="0.00" departSpeed="max" arrivalLane="0" arrivalPos="max">
        <route edges="E4 E1"/>
    </vehicle>
    <vehicle id="car-flow-route--E1_1_0--E4_1_max-248899497872519462--7266489842092764092--2-0.15" type="actor-car--4238973458400510012" depart="109.85" departLane="1" departPos="0.00" departSpeed="max" arrivalLane="1" arrivalPos="max">
        <route edges="-E1 -E4"/>
    </vehicle>
    <vehicle id="car-flow-route--E1_0_0--E0_0_max--3949343141680771758--7266489842092764092--3-0.14" type="actor-car--4238973458400510012" depart="114.74" departLane="0" departPos="0.00" departSpeed="max" arrivalLane="0" arrivalPos="max">
        <route edges="-E1 -E0"/>
    </vehicle>
    <vehicle id="car-flow-route-E4_1_0-E1_1_max--2352894271058968195--7266489842092764092--1-0.13" type="actor-car--4238973458400510012" depart="115.46" departLane="1" departPos="0.00" departSpeed="max" arrivalLane="1" arrivalPos="max">
        <route edges="E4 E1"/>
    </vehicle>
    <vehicle id="car-flow-route--E1_1_0--E4_1_max-248899497872519462--7266489842092764092--2-0.16" type="actor-car--4238973458400510012" depart="117.05" departLane="1" departPos="0.00" departSpeed="max" arrivalLane="1" arrivalPos="max">
        <route edges="-E1 -E4"/>
    </vehicle>
    <vehicle id="car-flow-route-E4_0_0-E1_0_max-5581999185648294116--7266489842092764092--0-0.10" type="actor-car--4238973458400510012" depart="120.43" departLane="0" departPos="0.00" departSpeed="max" arrivalLane="0" arrivalPos="max">
        <route edges="E4 E1"/>
    </vehicle>
    <vehicle id="car-flow-route--E1_0_0--E0_0_max--3949343141680771758--7266489842092764092--3-0.15" type="actor-car--4238973458400510012" depart="122.83" departLane="0" departPos="0.00" departSpeed="max" arrivalLane="0" arrivalPos="max">
        <route edges="-E1 -E0"/>
    </vehicle>
    <vehicle id="car-flow-route-E4_1_0-E1_1_max--2352894271058968195--7266489842092764092--1-0.14" type="actor-car--4238973458400510012" depart="124.20" departLane="1" departPos="0.00" departSpeed="max" arrivalLane="1" arrivalPos="max">
        <route edges="E4 E1"/>
    </vehicle>
    <vehicle id="car-flow-route--E1_1_0--E4_1_max-248899497872519462--7266489842092764092--2-0.17" type="actor-car--4238973458400510012" depart="124.25" departLane="1" departPos="0.00" departSpeed="max" arrivalLane="1" arrivalPos="max">
        <route edges="-E1 -E4"/>
    </vehicle>
    <vehicle id="car-flow-route--E1_0_0--E0_0_max--3949343141680771758--7266489842092764092--3-0.16" type="actor-car--4238973458400510012" depart="130.92" departLane="0" departPos="0.00" departSpeed="max" arrivalLane="0" arrivalPos="max">
        <route edges="-E1 -E0"/>
    </vehicle>
    <vehicle id="car-flow-route--E1_1_0--E4_1_max-248899497872519462--7266489842092764092--2-0.18" type="actor-car--4238973458400510012" depart="131.45" departLane="1" departPos="0.00" departSpeed="max" arrivalLane="1" arrivalPos="max">
        <route edges="-E1 -E4"/>
    </vehicle>
    <vehicle id="car-flow-route-E4_0_0-E1_0_max-5581999185648294116--7266489842092764092--0-0.11" type="actor-car--4238973458400510012" depart="132.32" departLane="0" departPos="0.00" departSpeed="max" arrivalLane="0" arrivalPos="max">
        <route edges="E4 E1"/>
    </vehicle>
    <vehicle id="car-flow-route-E4_1_0-E1_1_max--2352894271058968195--7266489842092764092--1-0.15" type="actor-car--4238973458400510012" depart="132.94" departLane="1" departPos="0.00" departSpeed="max" arrivalLane="1" arrivalPos="max">
        <route edges="E4 E1"/>
    </vehicle>
    <vehicle id="car-flow-route--E1_1_0--E4_1_max-248899497872519462--7266489842092764092--2-0.19" type="actor-car--4238973458400510012" depart="138.65" departLane="1" departPos="0.00" departSpeed="max" arrivalLane="1" arrivalPos="max">
        <route edges="-E1 -E4"/>
    </vehicle>
    <vehicle id="car-flow-route--E1_0_0--E0_0_max--3949343141680771758--7266489842092764092--3-0.17" type="actor-car--4238973458400510012" depart="139.01" departLane="0" departPos="0.00" departSpeed="max" arrivalLane="0" arrivalPos="max">
        <route edges="-E1 -E0"/>
    </vehicle>
    <vehicle id="car-flow-route-E4_1_0-E1_1_max--2352894271058968195--7266489842092764092--1-0.16" type="actor-car--4238973458400510012" depart="141.68" departLane="1" departPos="0.00" departSpeed="max" arrivalLane="1" arrivalPos="max">
        <route edges="E4 E1"/>
    </vehicle>
    <vehicle id="car-flow-route-E4_0_0-E1_0_max-5581999185648294116--7266489842092764092--0-0.12" type="actor-car--4238973458400510012" depart="144.21" departLane="0" departPos="0.00" departSpeed="max" arrivalLane="0" arrivalPos="max">
        <route edges="E4 E1"/>
    </vehicle>
    <vehicle id="car-flow-route--E1_1_0--E4_1_max-248899497872519462--7266489842092764092--2-0.20" type="actor-car--4238973458400510012" depart="145.85" departLane="1" departPos="0.00" departSpeed="max" arrivalLane="1" arrivalPos="max">
        <route edges="-E1 -E4"/>
    </vehicle>
    <vehicle id="car-flow-route--E1_0_0--E0_0_max--3949343141680771758--7266489842092764092--3-0.18" type="actor-car--4238973458400510012" depart="147.10" departLane="0" departPos="0.00" departSpeed="max" arrivalLane="0" arrivalPos="max">
        <route edges="-E1 -E0"/>
    </vehicle>
    <vehicle id="car-flow-route-E4_1_0-E1_1_max--2352894271058968195--7266489842092764092--1-0.17" type="actor-car--4238973458400510012" depart="150.42" departLane="1" departPos="0.00" departSpeed="max" arrivalLane="1" arrivalPos="max">
        <route edges="E4 E1"/>
    </vehicle>
    <vehicle id="car-flow-route--E1_1_0--E4_1_max-248899497872519462--7266489842092764092--2-0.21" type="actor-car--4238973458400510012" depart="153.05" departLane="1" departPos="0.00" departSpeed="max" arrivalLane="1" arrivalPos="max">
        <route edges="-E1 -E4"/>
    </vehicle>
    <vehicle id="car-flow-route--E1_0_0--E0_0_max--3949343141680771758--7266489842092764092--3-0.19" type="actor-car--4238973458400510012" depart="155.19" departLane="0" departPos="0.00" departSpeed="max" arrivalLane="0" arrivalPos="max">
        <route edges="-E1 -E0"/>
    </vehicle>
    <vehicle id="car-flow-route-E4_0_0-E1_0_max-5581999185648294116--7266489842092764092--0-0.13" type="actor-car--4238973458400510012" depart="156.10" departLane="0" departPos="0.00" departSpeed="max" arrivalLane="0" arrivalPos="max">
        <route edges="E4 E1"/>
    </vehicle>
    <vehicle id="car-flow-route-E4_1_0-E1_1_max--2352894271058968195--7266489842092764092--1-0.18" type="actor-car--4238973458400510012" depart="159.16" departLane="1" departPos="0.00" departSpeed="max" arrivalLane="1" arrivalPos="max">
        <route edges="E4 E1"/>
    </vehicle>
    <vehicle id="car-flow-route--E1_1_0--E4_1_max-248899497872519462--7266489842092764092--2-0.22" type="actor-car--4238973458400510012" depart="160.25" departLane="1" departPos="0.00" departSpeed="max" arrivalLane="1" arrivalPos="max">
        <route edges="-E1 -E4"/>
    </vehicle>
    <vehicle id="car-flow-route--E1_0_0--E0_0_max--3949343141680771758--7266489842092764092--3-0.20" type="actor-car--4238973458400510012" depart="163.28" departLane="0" departPos="0.00" departSpeed="max" arrivalLane="0" arrivalPos="max">
        <route edges="-E1 -E0"/>
    </vehicle>
    <vehicle id="car-flow-route--E1_1_0--E4_1_max-248899497872519462--7266489842092764092--2-0.23" type="actor-car--4238973458400510012" depart="167.45" departLane="1" departPos="0.00" departSpeed="max" arrivalLane="1" arrivalPos="max">
        <route edges="-E1 -E4"/>
    </vehicle>
    <vehicle id="car-flow-route-E4_1_0-E1_1_max--2352894271058968195--7266489842092764092--1-0.19" type="actor-car--4238973458400510012" depart="167.90" departLane="1" departPos="0.00" departSpeed="max" arrivalLane="1" arrivalPos="max">
        <route edges="E4 E1"/>
    </vehicle>
    <vehicle id="car-flow-route-E4_0_0-E1_0_max-5581999185648294116--7266489842092764092--0-0.14" type="actor-car--4238973458400510012" depart="167.99" departLane="0" departPos="0.00" departSpeed="max" arrivalLane="0" arrivalPos="max">
        <route edges="E4 E1"/>
    </vehicle>
    <vehicle id="car-flow-route--E1_0_0--E0_0_max--3949343141680771758--7266489842092764092--3-0.21" type="actor-car--4238973458400510012" depart="171.38" departLane="0" departPos="0.00" departSpeed="max" arrivalLane="0" arrivalPos="max">
        <route edges="-E1 -E0"/>
    </vehicle>
    <vehicle id="car-flow-route--E1_1_0--E4_1_max-248899497872519462--7266489842092764092--2-0.24" type="actor-car--4238973458400510012" depart="174.65" departLane="1" departPos="0.00" departSpeed="max" arrivalLane="1" arrivalPos="max">
        <route edges="-E1 -E4"/>
    </vehicle>
    <vehicle id="car-flow-route-E4_1_0-E1_1_max--2352894271058968195--7266489842092764092--1-0.20" type="actor-car--4238973458400510012" depart="176.63" departLane="1" departPos="0.00" departSpeed="max" arrivalLane="1" arrivalPos="max">
        <route edges="E4 E1"/>
    </vehicle>
    <vehicle id="car-flow-route--E1_0_0--E0_0_max--3949343141680771758--7266489842092764092--3-0.22" type="actor-car--4238973458400510012" depart="179.47" departLane="0" departPos="0.00" departSpeed="max" arrivalLane="0" arrivalPos="max">
        <route edges="-E1 -E0"/>
    </vehicle>
    <vehicle id="car-flow-route-E4_0_0-E1_0_max-5581999185648294116--7266489842092764092--0-0.15" type="actor-car--4238973458400510012" depart="179.88" departLane="0" departPos="0.00" departSpeed="max" arrivalLane="0" arrivalPos="max">
        <route edges="E4 E1"/>
    </vehicle>
    <vehicle id="car-flow-route--E1_1_0--E4_1_max-248899497872519462--7266489842092764092--2-0.25" type="actor-car--4238973458400510012" depart="181.85" departLane="1" departPos="0.00" departSpeed="max" arrivalLane="1" arrivalPos="max">
        <route edges="-E1 -E4"/>
    </vehicle>
    <vehicle id="car-flow-route-E4_1_0-E1_1_max--2352894271058968195--7266489842092764092--1-0.21" type="actor-car--4238973458400510012" depart="185.37" departLane="1" departPos="0.00" departSpeed="max" arrivalLane="1" arrivalPos="max">
        <route edges="E4 E1"/>
    </vehicle>
    <vehicle id="car-flow-route--E1_0_0--E0_0_max--3949343141680771758--7266489842092764092--3-0.23" type="actor-car--4238973458400510012" depart="187.56" departLane="0" departPos="0.00" departSpeed="max" arrivalLane="0" arrivalPos="max">
        <route edges="-E1 -E0"/>
    </vehicle>
    <vehicle id="car-flow-route--E1_1_0--E4_1_max-248899497872519462--7266489842092764092--2-0.26" type="actor-car--4238973458400510012" depart="189.05" departLane="1" departPos="0.00" departSpeed="max" arrivalLane="1" arrivalPos="max">
        <route edges="-E1 -E4"/>
    </vehicle>
    <vehicle id="car-flow-route-E4_0_0-E1_0_max-5581999185648294116--7266489842092764092--0-0.16" type="actor-car--4238973458400510012" depart="191.77" departLane="0" departPos="0.00" departSpeed="max" arrivalLane="0" arrivalPos="max">
        <route edges="E4 E1"/>
    </vehicle>
    <vehicle id="car-flow-route-E4_1_0-E1_1_max--2352894271058968195--7266489842092764092--1-0.22" type="actor-car--4238973458400510012" depart="194.11" departLane="1" departPos="0.00" departSpeed="max" arrivalLane="1" arrivalPos="max">
        <route edges="E4 E1"/>
    </vehicle>
    <vehicle id="car-flow-route--E1_0_0--E0_0_max--3949343141680771758--7266489842092764092--3-0.24" type="actor-car--4238973458400510012" depart="195.65" departLane="0" departPos="0.00" departSpeed="max" arrivalLane="0" arrivalPos="max">
        <route edges="-E1 -E0"/>
    </vehicle>
    <vehicle id="car-flow-route--E1_1_0--E4_1_max-248899497872519462--7266489842092764092--2-0.27" type="actor-car--4238973458400510012" depart="196.25" departLane="1" departPos="0.00" departSpeed="max" arrivalLane="1" arrivalPos="max">
        <route edges="-E1 -E4"/>
    </vehicle>
    <vehicle id="car-flow-route-E4_1_0-E1_1_max--2352894271058968195--7266489842092764092--1-0.23" type="actor-car--4238973458400510012" depart="202.85" departLane="1" departPos="0.00" departSpeed="max" arrivalLane="1" arrivalPos="max">
        <route edges="E4 E1"/>
    </vehicle>
    <vehicle id="car-flow-route--E1_1_0--E4_1_max-248899497872519462--7266489842092764092--2-0.28" type="actor-car--4238973458400510012" depart="203.45" departLane="1" departPos="0.00" departSpeed="max" arrivalLane="1" arrivalPos="max">
        <route edges="-E1 -E4"/>
    </vehicle>
    <vehicle id="car-flow-route-E4_0_0-E1_0_max-5581999185648294116--7266489842092764092--0-0.17" type="actor-car--4238973458400510012" depart="203.66" departLane="0" departPos="0.00" departSpeed="max" arrivalLane="0" arrivalPos="max">
        <route edges="E4 E1"/>
    </vehicle>
    <vehicle id="car-flow-route--E1_0_0--E0_0_max--3949343141680771758--7266489842092764092--3-0.25" type="actor-car--4238973458400510012" depart="203.74" departLane="0" departPos="0.00" departSpeed="max" arrivalLane="0" arrivalPos="max">
        <route edges="-E1 -E0"/>
    </vehicle>
    <vehicle id="car-flow-route--E1_1_0--E4_1_max-248899497872519462--7266489842092764092--2-0.29" type="actor-car--4238973458400510012" depart="210.65" departLane="1" departPos="0.00" departSpeed="max" arrivalLane="1" arrivalPos="max">
        <route edges="-E1 -E4"/>
    </vehicle>
    <vehicle id="car-flow-route-E4_1_0-E1_1_max--2352894271058968195--7266489842092764092--1-0.24" type="actor-car--4238973458400510012" depart="211.59" departLane="1" departPos="0.00" departSpeed="max" arrivalLane="1" arrivalPos="max">
        <route edges="E4 E1"/>
    </vehicle>
    <vehicle id="car-flow-route--E1_0_0--E0_0_max--3949343141680771758--7266489842092764092--3-0.26" type="actor-car--4238973458400510012" depart="211.83" departLane="0" departPos="0.00" departSpeed="max" arrivalLane="0" arrivalPos="max">
        <route edges="-E1 -E0"/>
    </vehicle>
    <vehicle id="car-flow-route-E4_0_0-E1_0_max-5581999185648294116--7266489842092764092--0-0.18" type="actor-car--4238973458400510012" depart="215.56" departLane="0" departPos="0.00" departSpeed="max" arrivalLane="0" arrivalPos="max">
        <route edges="E4 E1"/>
    </vehicle>