<?xml version="1.0" encoding="UTF-8"?>

<!-- generated on 2023-05-28 21:07:45 by Eclipse SUMO duarouter Version 1.16.0
<configuration xmlns:xsi="http://www.w3.org/2001/XMLSchema-instance" xsi:noNamespaceSchemaLocation="http://sumo.dlr.de/xsd/duarouterConfiguration.xsd">

    <input>
        <net-file value="/home/smarts/scenarios/sumo/intersections/1_to_2lane_left_turn_t_agents_1/map.net.xml"/>
        <route-files value="/tmp/tmp583jk848/trips.trips.xml"/>
    </input>

    <output>
        <output-file value="/home/smarts/scenarios/sumo/intersections/1_to_2lane_left_turn_t_agents_1/build/traffic/326.rou.xml"/>
    </output>

    <processing>
        <unsorted-input value="true"/>
        <repair value="true"/>
    </processing>

    <report>
        <error-log value="/root/.smarts/_duarouter_routing/traffic/326.log"/>
        <no-step-log value="true"/>
    </report>

    <random_number>
        <seed value="42"/>
    </random_number>

</configuration>
-->

<routes xmlns:xsi="http://www.w3.org/2001/XMLSchema-instance" xsi:noNamespaceSchemaLocation="http://sumo.dlr.de/xsd/routes_file.xsd">
    <vType id="actor-car--4238973458400510012" minGap="2.50" maxSpeed="55.50" speedFactor="normc(1.00,0.10,0.20,2.00)" vClass="passenger" accel="2.6" decel="4.5" sigma="0.5"/>
    <vehicle id="car-flow-route--E1_1_0--E4_1_max-248899497872519462--7266489842092764092--2-0.0" type="actor-car--4238973458400510012" depart="0.49" departLane="1" departPos="0.00" departSpeed="max" arrivalLane="1" arrivalPos="max">
        <route edges="-E1 -E4"/>
    </vehicle>
    <vehicle id="car-flow-route--E1_0_0--E4_0_max--2345656016055477228--7266489842092764092--1-0.0" type="actor-car--4238973458400510012" depart="1.20" departLane="0" departPos="0.00" departSpeed="max" arrivalLane="0" arrivalPos="max">
        <route edges="-E1 -E4"/>
    </vehicle>
    <vehicle id="car-flow-route-E4_0_0-E1_0_max-5581999185648294116--7266489842092764092--0-0.0" type="actor-car--4238973458400510012" depart="2.26" departLane="0" departPos="0.00" departSpeed="max" arrivalLane="0" arrivalPos="max">
        <route edges="E4 E1"/>
    </vehicle>
    <vehicle id="car-flow-route-E4_1_0--E0_0_max-2452033897916848868--7266489842092764092--3-0.0" type="actor-car--4238973458400510012" depart="2.50" departLane="1" departPos="0.00" departSpeed="max" arrivalLane="0" arrivalPos="max">
        <route edges="E4 -E0"/>
    </vehicle>
    <vehicle id="car-flow-route--E1_0_0--E4_0_max--2345656016055477228--7266489842092764092--1-0.1" type="actor-car--4238973458400510012" depart="8.20" departLane="0" departPos="0.00" departSpeed="max" arrivalLane="0" arrivalPos="max">
        <route edges="-E1 -E4"/>
    </vehicle>
    <vehicle id="car-flow-route-E4_0_0-E1_0_max-5581999185648294116--7266489842092764092--0-0.1" type="actor-car--4238973458400510012" depart="9.82" departLane="0" departPos="0.00" departSpeed="max" arrivalLane="0" arrivalPos="max">
        <route edges="E4 E1"/>
    </vehicle>
    <vehicle id="car-flow-route--E1_1_0--E4_1_max-248899497872519462--7266489842092764092--2-0.1" type="actor-car--4238973458400510012" depart="11.63" departLane="1" departPos="0.00" departSpeed="max" arrivalLane="1" arrivalPos="max">
        <route edges="-E1 -E4"/>
    </vehicle>
    <vehicle id="car-flow-route-E4_1_0--E0_0_max-2452033897916848868--7266489842092764092--3-0.1" type="actor-car--4238973458400510012" depart="12.18" departLane="1" departPos="0.00" departSpeed="max" arrivalLane="0" arrivalPos="max">
        <route edges="E4 -E0"/>
    </vehicle>
    <vehicle id="car-flow-route--E1_0_0--E4_0_max--2345656016055477228--7266489842092764092--1-0.2" type="actor-car--4238973458400510012" depart="15.21" departLane="0" departPos="0.00" departSpeed="max" arrivalLane="0" arrivalPos="max">
        <route edges="-E1 -E4"/>
    </vehicle>
    <vehicle id="car-flow-route-E4_0_0-E1_0_max-5581999185648294116--7266489842092764092--0-0.2" type="actor-car--4238973458400510012" depart="17.38" departLane="0" departPos="0.00" departSpeed="max" arrivalLane="0" arrivalPos="max">
        <route edges="E4 E1"/>
    </vehicle>
    <vehicle id="car-flow-route-E4_1_0--E0_0_max-2452033897916848868--7266489842092764092--3-0.2" type="actor-car--4238973458400510012" depart="21.85" departLane="1" departPos="0.00" departSpeed="max" arrivalLane="0" arrivalPos="max">
        <route edges="E4 -E0"/>
    </vehicle>
    <vehicle id="car-flow-route--E1_0_0--E4_0_max--2345656016055477228--7266489842092764092--1-0.3" type="actor-car--4238973458400510012" depart="22.21" departLane="0" departPos="0.00" departSpeed="max" arrivalLane="0" arrivalPos="max">
        <route edges="-E1 -E4"/>
    </vehicle>
    <vehicle id="car-flow-route--E1_1_0--E4_1_max-248899497872519462--7266489842092764092--2-0.2" type="actor-car--4238973458400510012" depart="22.77" departLane="1" departPos="0.00" departSpeed="max" arrivalLane="1" arrivalPos="max">
        <route edges="-E1 -E4"/>
    </vehicle>
    <vehicle id="car-flow-route-E4_0_0-E1_0_max-5581999185648294116--7266489842092764092--0-0.3" type="actor-car--4238973458400510012" depart="24.94" departLane="0" departPos="0.00" departSpeed="max" arrivalLane="0" arrivalPos="max">
        <route edges="E4 E1"/>
    </vehicle>
    <vehicle id="car-flow-route--E1_0_0--E4_0_max--2345656016055477228--7266489842092764092--1-0.4" type="actor-car--4238973458400510012" depart="29.22" departLane="0" departPos="0.00" departSpeed="max" arrivalLane="0" arrivalPos="max">
        <route edges="-E1 -E4"/>
    </vehicle>
    <vehicle id="car-flow-route-E4_1_0--E0_0_max-2452033897916848868--7266489842092764092--3-0.3" type="actor-car--4238973458400510012" depart="31.53" departLane="1" departPos="0.00" departSpeed="max" arrivalLane="0" arrivalPos="max">
        <route edges="E4 -E0"/>
    </vehicle>
    <vehicle id="car-flow-route-E4_0_0-E1_0_max-5581999185648294116--7266489842092764092--0-0.4" type="actor-car--4238973458400510012" depart="32.50" departLane="0" departPos="0.00" departSpeed="max" arrivalLane="0" arrivalPos="max">
        <route edges="E4 E1"/>
    </vehicle>
    <vehicle id="car-flow-route--E1_1_0--E4_1_max-248899497872519462--7266489842092764092--2-0.3" type="actor-car--4238973458400510012" depart="33.92" departLane="1" departPos="0.00" departSpeed="max" arrivalLane="1" arrivalPos="max">
        <route edges="-E1 -E4"/>
    </vehicle>
    <vehicle id="car-flow-route--E1_0_0--E4_0_max--2345656016055477228--7266489842092764092--1-0.5" type="actor-car--4238973458400510012" depart="36.23" departLane="0" departPos="0.00" departSpeed="max" arrivalLane="0" arrivalPos="max">
        <route edges="-E1 -E4"/>
    </vehicle>
    <vehicle id="car-flow-route-E4_0_0-E1_0_max-5581999185648294116--7266489842092764092--0-0.5" type="actor-car--4238973458400510012" depart="40.06" departLane="0" departPos="0.00" departSpeed="max" arrivalLane="0" arrivalPos="max">
        <route edges="E4 E1"/>
    </vehicle>
    <vehicle id="car-flow-route-E4_1_0--E0_0_max-2452033897916848868--7266489842092764092--3-0.4" type="actor-car--4238973458400510012" depart="41.20" departLane="1" departPos="0.00" departSpeed="max" arrivalLane="0" arrivalPos="max">
        <route edges="E4 -E0"/>
    </vehicle>
    <vehicle id="car-flow-route--E1_0_0--E4_0_max--2345656016055477228--7266489842092764092--1-0.6" type="actor-car--4238973458400510012" depart="43.23" departLane="0" departPos="0.00" departSpeed="max" arrivalLane="0" arrivalPos="max">
        <route edges="-E1 -E4"/>
    </vehicle>
    <vehicle id="car-flow-route--E1_1_0--E4_1_max-248899497872519462--7266489842092764092--2-0.4" type="actor-car--4238973458400510012" depart="45.06" departLane="1" departPos="0.00" departSpeed="max" arrivalLane="1" arrivalPos="max">
        <route edges="-E1 -E4"/>
    </vehicle>
    <vehicle id="car-flow-route-E4_0_0-E1_0_max-5581999185648294116--7266489842092764092--0-0.6" type="actor-car--4238973458400510012" depart="47.62" departLane="0" departPos="0.00" departSpeed="max" arrivalLane="0" arrivalPos="max">
        <route edges="E4 E1"/>
    </vehicle>
    <vehicle id="car-flow-route--E1_0_0--E4_0_max--2345656016055477228--7266489842092764092--1-0.7" type="actor-car--4238973458400510012" depart="50.24" departLane="0" departPos="0.00" departSpeed="max" arrivalLane="0" arrivalPos="max">
        <route edges="-E1 -E4"/>
    </vehicle>
    <vehicle id="car-flow-route-E4_1_0--E0_0_max-2452033897916848868--7266489842092764092--3-0.5" type="actor-car--4238973458400510012" depart="50.87" departLane="1" departPos="0.00" departSpeed="max" arrivalLane="0" arrivalPos="max">
        <route edges="E4 -E0"/>
    </vehicle>
    <vehicle id="car-flow-route-E4_0_0-E1_0_max-5581999185648294116--7266489842092764092--0-0.7" type="actor-car--4238973458400510012" depart="55.18" departLane="0" departPos="0.00" departSpeed="max" arrivalLane="0" arrivalPos="max">
        <route edges="E4 E1"/>
    </vehicle>
    <vehicle id="car-flow-route--E1_1_0--E4_1_max-248899497872519462--7266489842092764092--2-0.5" type="actor-car--4238973458400510012" depart="56.20" departLane="1" departPos="0.00" departSpeed="max" arrivalLane="1" arrivalPos="max">
        <route edges="-E1 -E4"/>
    </vehicle>
    <vehicle id="car-flow-route--E1_0_0--E4_0_max--2345656016055477228--7266489842092764092--1-0.8" type="actor-car--4238973458400510012" depart="57.24" departLane="0" departPos="0.00" departSpeed="max" arrivalLane="0" arrivalPos="max">
        <route edges="-E1 -E4"/>
    </vehicle>
    <vehicle id="car-flow-route-E4_1_0--E0_0_max-2452033897916848868--7266489842092764092--3-0.6" type="actor-car--4238973458400510012" depart="60.55" departLane="1" departPos="0.00" departSpeed="max" arrivalLane="0" arrivalPos="max">
        <route edges="E4 -E0"/>
    </vehicle>
    <vehicle id="car-flow-route-E4_0_0-E1_0_max-5581999185648294116--7266489842092764092--0-0.8" type="actor-car--4238973458400510012" depart="62.75" departLane="0" departPos="0.00" departSpeed="max" arrivalLane="0" arrivalPos="max">
        <route edges="E4 E1"/>
    </vehicle>
    <vehicle id="car-flow-route--E1_0_0--E4_0_max--2345656016055477228--7266489842092764092--1-0.9" type="actor-car--4238973458400510012" depart="64.25" departLane="0" departPos="0.00" departSpeed="max" arrivalLane="0" arrivalPos="max">
        <route edges="-E1 -E4"/>
    </vehicle>
    <vehicle id="car-flow-route--E1_1_0--E4_1_max-248899497872519462--7266489842092764092--2-0.6" type="actor-car--4238973458400510012" depart="67.35" departLane="1" departPos="0.00" departSpeed="max" arrivalLane="1" arrivalPos="max">
        <route edges="-E1 -E4"/>
    </vehicle>
    <vehicle id="car-flow-route-E4_1_0--E0_0_max-2452033897916848868--7266489842092764092--3-0.7" type="actor-car--4238973458400510012" depart="70.22" departLane="1" departPos="0.00" departSpeed="max" arrivalLane="0" arrivalPos="max">
        <route edges="E4 -E0"/>
    </vehicle>
    <vehicle id="car-flow-route-E4_0_0-E1_0_max-5581999185648294116--7266489842092764092--0-0.9" type="actor-car--4238973458400510012" depart="70.31" departLane="0" departPos="0.00" departSpeed="max" arrivalLane="0" arrivalPos="max">
        <route edges="E4 E1"/>
    </vehicle>
    <vehicle id="car-flow-route--E1_0_0--E4_0_max--2345656016055477228--7266489842092764092--1-0.10" type="actor-car--4238973458400510012" depart="71.26" departLane="0" departPos="0.00" departSpeed="max" arrivalLane="0" arrivalPos="max">
        <route edges="-E1 -E4"/>
    </vehicle>
    <vehicle id="car-flow-route-E4_0_0-E1_0_max-5581999185648294116--7266489842092764092--0-0.10" type="actor-car--4238973458400510012" depart="77.87" departLane="0" departPos="0.00" departSpeed="max" arrivalLane="0" arrivalPos="max">
        <route edges="E4 E1"/>
    </vehicle>
    <vehicle id="car-flow-route--E1_0_0--E4_0_max--2345656016055477228--7266489842092764092--1-0.11" type="actor-car--4238973458400510012" depart="78.26" departLane="0" departPos="0.00" departSpeed="max" arrivalLane="0" arrivalPos="max">
        <route edges="-E1 -E4"/>
    </vehicle>
    <vehicle id="car-flow-route--E1_1_0--E4_1_max-248899497872519462--7266489842092764092--2-0.7" type="actor-car--4238973458400510012" depart="78.49" departLane="1" departPos="0.00" departSpeed="max" arrivalLane="1" arrivalPos="max">
        <route edges="-E1 -E4"/>
    </vehicle>
    <vehicle id="car-flow-route-E4_1_0--E0_0_max-2452033897916848868--7266489842092764092--3-0.8" type="actor-car--4238973458400510012" depart="79.90" departLane="1" departPos="0.00" departSpeed="max" arrivalLane="0" arrivalPos="max">
        <route edges="E4 -E0"/>
    </vehicle>
    <vehicle id="car-flow-route--E1_0_0--E4_0_max--2345656016055477228--7266489842092764092--1-0.12" type="actor-car--4238973458400510012" depart="85.27" departLane="0" departPos="0.00" departSpeed="max" arrivalLane="0" arrivalPos="max">
        <route edges="-E1 -E4"/>
    </vehicle>
    <vehicle id="car-flow-route-E4_0_0-E1_0_max-5581999185648294116--7266489842092764092--0-0.11" type="actor-car--4238973458400510012" depart="85.43" departLane="0" departPos="0.00" departSpeed="max" arrivalLane="0" arrivalPos="max">
        <route edges="E4 E1"/>
    </vehicle>
    <vehicle id="car-flow-route-E4_1_0--E0_0_max-2452033897916848868--7266489842092764092--3-0.9" type="actor-car--4238973458400510012" depart="89.57" departLane="1" departPos="0.00" departSpeed="max" arrivalLane="0" arrivalPos="max">
        <route edges="E4 -E0"/>
    </vehicle>
    <vehicle id="car-flow-route--E1_1_0--E4_1_max-248899497872519462--7266489842092764092--2-0.8" type="actor-car--4238973458400510012" depart="89.63" departLane="1" departPos="0.00" departSpeed="max" arrivalLane="1" arrivalPos="max">
        <route edges="-E1 -E4"/>
    </vehicle>
    <vehicle id="car-flow-route--E1_0_0--E4_0_max--2345656016055477228--7266489842092764092--1-0.13" type="actor-car--4238973458400510012" depart="92.27" departLane="0" departPos="0.00" departSpeed="max" arrivalLane="0" arrivalPos="max">
        <route edges="-E1 -E4"/>
    </vehicle>
    <vehicle id="car-flow-route-E4_0_0-E1_0_max-5581999185648294116--7266489842092764092--0-0.12" type="actor-car--4238973458400510012" depart="92.99" departLane="0" departPos="0.00" departSpeed="max" arrivalLane="0" arrivalPos="max">
        <route edges="E4 E1"/>
    </vehicle>
    <vehicle id="car-flow-route-E4_1_0--E0_0_max-2452033897916848868--7266489842092764092--3-0.10" type="actor-car--4238973458400510012" depart="99.24" departLane="1" departPos="0.00" departSpeed="max" arrivalLane="0" arrivalPos="max">
        <route edges="E4 -E0"/>
    </vehicle>
    <vehicle id="car-flow-route--E1_0_0--E4_0_max--2345656016055477228--7266489842092764092--1-0.14" type="actor-car--4238973458400510012" depart="99.28" departLane="0" departPos="0.00" departSpeed="max" arrivalLane="0" arrivalPos="max">
        <route edges="-E1 -E4"/>
    </vehicle>
    <vehicle id="car-flow-route-E4_0_0-E1_0_max-5581999185648294116--7266489842092764092--0-0.13" type="actor-car--4238973458400510012" depart="100.55" departLane="0" departPos="0.00" departSpeed="max" arrivalLane="0" arrivalPos="max">
        <route edges="E4 E1"/>
    </vehicle>
    <vehicle id="car-flow-route--E1_1_0--E4_1_max-248899497872519462--7266489842092764092--2-0.9" type="actor-car--4238973458400510012" depart="100.77" departLane="1" departPos="0.00" departSpeed="max" arrivalLane="1" arrivalPos="max">
        <route edges="-E1 -E4"/>
    </vehicle>
    <vehicle id="car-flow-route--E1_0_0--E4_0_max--2345656016055477228--7266489842092764092--1-0.15" type="actor-car--4238973458400510012" depart="106.29" departLane="0" departPos="0.00" departSpeed="max" arrivalLane="0" arrivalPos="max">
        <route edges="-E1 -E4"/>
    </vehicle>
    <vehicle id="car-flow-route-E4_0_0-E1_0_max-5581999185648294116--7266489842092764092--0-0.14" type="actor-car--4238973458400510012" depart="108.11" departLane="0" departPos="0.00" departSpeed="max" arrivalLane="0" arrivalPos="max">
        <route edges="E4 E1"/>
    </vehicle>
    <vehicle id="car-flow-route-E4_1_0--E0_0_max-2452033897916848868--7266489842092764092--3-0.11" type="actor-car--4238973458400510012" depart="108.92" departLane="1" departPos="0.00" departSpeed="max" arrivalLane="0" arrivalPos="max">
        <route edges="E4 -E0"/>
    </vehicle>
    <vehicle id="car-flow-route--E1_1_0--E4_1_max-248899497872519462--7266489842092764092--2-0.10" type="actor-car--4238973458400510012" depart="111.92" departLane="1" departPos="0.00" departSpeed="max" arrivalLane="1" arrivalPos="max">
        <route edges="-E1 -E4"/>
    </vehicle>
    <vehicle id="car-flow-route--E1_0_0--E4_0_max--2345656016055477228--7266489842092764092--1-0.16" type="actor-car--4238973458400510012" depart="113.29" departLane="0" departPos="0.00" departSpeed="max" arrivalLane="0" arrivalPos="max">
        <route edges="-E1 -E4"/>
    </vehicle>
    <vehicle id="car-flow-route-E4_0_0-E1_0_max-5581999185648294116--7266489842092764092--0-0.15" type="actor-car--4238973458400510012" depart="115.67" departLane="0" departPos="0.00" departSpeed="max" arrivalLane="0" arrivalPos="max">
        <route edges="E4 E1"/>
    </vehicle>
    <vehicle id="car-flow-route-E4_1_0--E0_0_max-2452033897916848868--7266489842092764092--3-0.12" type="actor-car--4238973458400510012" depart="118.59" departLane="1" departPos="0.00" departSpeed="max" arrivalLane="0" arrivalPos="max">
        <route edges="E4 -E0"/>
    </vehicle>
    <vehicle id="car-flow-route--E1_0_0--E4_0_max--2345656016055477228--7266489842092764092--1-0.17" type="actor-car--4238973458400510012" depart="120.30" departLane="0" departPos="0.00" departSpeed="max" arrivalLane="0" arrivalPos="max">
        <route edges="-E1 -E4"/>
    </vehicle>
    <vehicle id="car-flow-route--E1_1_0--E4_1_max-248899497872519462--7266489842092764092--2-0.11" type="actor-car--4238973458400510012" depart="123.06" departLane="1" departPos="0.00" departSpeed="max" arrivalLane="1" arrivalPos="max">
        <route edges="-E1 -E4"/>
    </vehicle>
    <vehicle id="car-flow-route-E4_0_0-E1_0_max-5581999185648294116--7266489842092764092--0-0.16" type="actor-car--4238973458400510012" depart="123.23" departLane="0" departPos="0.00" departSpeed="max" arrivalLane="0" arrivalPos="max">
        <route edges="E4 E1"/>
    </vehicle>
    <vehicle id="car-flow-route--E1_0_0--E4_0_max--2345656016055477228--7266489842092764092--1-0.18" type="actor-car--4238973458400510012" depart="127.30" departLane="0" departPos="0.00" departSpeed="max" arrivalLane="0" arrivalPos="max">
        <route edges="-E1 -E4"/>
    </vehicle>
    <vehicle id="car-flow-route-E4_1_0--E0_0_max-2452033897916848868--7266489842092764092--3-0.13" type="actor-car--4238973458400510012" depart="128.27" departLane="1" departPos="0.00" departSpeed="max" arrivalLane="0" arrivalPos="max">
        <route edges="E4 -E0"/>
    </vehicle>
    <vehicle id="car-flow-route-E4_0_0-E1_0_max-5581999185648294116--7266489842092764092--0-0.17" type="actor-car--4238973458400510012" depart="130.79" departLane="0" departPos="0.00" departSpeed="max" arrivalLane="0" arrivalPos="max">
        <route edges="E4 E1"/>
    </vehicle>
    <vehicle id="car-flow-route--E1_1_0--E4_1_max-248899497872519462--7266489842092764092--2-0.12" type="actor-car--4238973458400510012" depart="134.20" departLane="1" departPos="0.00" departSpeed="max" arrivalLane="1" arrivalPos="max">
        <route edges="-E1 -E4"/>
    </vehicle>
    <vehicle id="car-flow-route--E1_0_0--E4_0_max--2345656016055477228--7266489842092764092--1-0.19" type="actor-car--4238973458400510012" depart="134.31" departLane="0" departPos="0.00" departSpeed="max" arrivalLane="0" arrivalPos="max">
        <route edges="-E1 -E4"/>
    </vehicle>
    <vehicle id="car-flow-route-E4_1_0--E0_0_max-2452033897916848868--7266489842092764092--3-0.14" type="actor-car--4238973458400510012" depart="137.94" departLane="1" departPos="0.00" departSpeed="max" arrivalLane="0" arrivalPos="max">
        <route edges="E4 -E0"/>
    </vehicle>
    <vehicle id="car-flow-route-E4_0_0-E1_0_max-5581999185648294116--7266489842092764092--0-0.18" type="actor-car--4238973458400510012" depart="138.36" departLane="0" departPos="0.00" departSpeed="max" arrivalLane="0" arrivalPos="max">
        <route edges="E4 E1"/>
    </vehicle>
    <vehicle id="car-flow-route--E1_0_0--E4_0_max--2345656016055477228--7266489842092764092--1-0.20" type="actor-car--4238973458400510012" depart="141.32" departLane="0" departPos="0.00" departSpeed="max" arrivalLane="0" arrivalPos="max">
        <route edges="-E1 -E4"/>
    </vehicle>
    <vehicle id="car-flow-route--E1_1_0--E4_1_max-248899497872519462--7266489842092764092--2-0.13" type="actor-car--4238973458400510012" depart="145.35" departLane="1" departPos="0.00" departSpeed="max" arrivalLane="1" arrivalPos="max">
        <route edges="-E1 -E4"/>
    </vehicle>
    <vehicle id="car-flow-route-E4_0_0-E1_0_max-5581999185648294116--7266489842092764092--0-0.19" type="actor-car--4238973458400510012" depart="145.92" departLane="0" departPos="0.00" departSpeed="max" arrivalLane="0" arrivalPos="max">
        <route edges="E4 E1"/>
    </vehicle>
    <vehicle id="car-flow-route-E4_1_0--E0_0_max-2452033897916848868--7266489842092764092--3-0.15" type="actor-car--4238973458400510012" depart="147.61" departLane="1" departPos="0.00" departSpeed="max" arrivalLane="0" arrivalPos="max">
        <route edges="E4 -E0"/>
    </vehicle>
    <vehicle id="car-flow-route--E1_0_0--E4_0_max--2345656016055477228--7266489842092764092--1-0.21" type="actor-car--4238973458400510012" depart="148.32" departLane="0" departPos="0.00" departSpeed="max" arrivalLane="0" arrivalPos="max">
        <route edges="-E1 -E4"/>
    </vehicle>
    <vehicle id="car-flow-route-E4_0_0-E1_0_max-5581999185648294116--7266489842092764092--0-0.20" type="actor-car--4238973458400510012" depart="153.48" departLane="0" departPos="0.00" departSpeed="max" arrivalLane="0" arrivalPos="max">
        <route edges="E4 E1"/>
    </vehicle>
    <vehicle id="car-flow-route--E1_0_0--E4_0_max--2345656016055477228--7266489842092764092--1-0.22" type="actor-car--4238973458400510012" depart="155.33" departLane="0" departPos="0.00" departSpeed="max" arrivalLane="0" arrivalPos="max">
        <route edges="-E1 -E4"/>
    </vehicle>
    <vehicle id="car-flow-route--E1_1_0--E4_1_max-248899497872519462--7266489842092764092--2-0.14" type="actor-car--4238973458400510012" depart="156.49" departLane="1" departPos="0.00" departSpeed="max" arrivalLane="1" arrivalPos="max">
        <route edges="-E1 -E4"/>
    </vehicle>
    <vehicle id="car-flow-route-E4_1_0--E0_0_max-2452033897916848868--7266489842092764092--3-0.16" type="actor-car--4238973458400510012" depart="157.29" departLane="1" departPos="0.00" departSpeed="max" arrivalLane="0" arrivalPos="max">
        <route edges="E4 -E0"/>
    </vehicle>
    <vehicle id="car-flow-route-E4_0_0-E1_0_max-5581999185648294116--7266489842092764092--0-0.21" type="actor-car--4238973458400510012" depart="161.04" departLane="0" departPos="0.00" departSpeed="max" arrivalLane="0" arrivalPos="max">
        <route edges="E4 E1"/>
    </vehicle>
    <vehicle id="car-flow-route--E1_0_0--E4_0_max--2345656016055477228--7266489842092764092--1-0.23" type="actor-car--4238973458400510012" depart="162.33" departLane="0" departPos="0.00" departSpeed="max" arrivalLane="0" arrivalPos="max">
        <route edges="-E1 -E4"/>
    </vehicle>
    <vehicle id="car-flow-route-E4_1_0--E0_0_max-2452033897916848868--7266489842092764092--3-0.17" type="actor-car--4238973458400510012" depart="166.96" departLane="1" departPos="0.00" departSpeed="max" arrivalLane="0" arrivalPos="max">
        <route edges="E4 -E0"/>
    </vehicle>
    <vehicle id="car-flow-route--E1_1_0--E4_1_max-248899497872519462--7266489842092764092--2-0.15" type="actor-car--4238973458400510012" depart="167.63" departLane="1" departPos="0.00" departSpeed="max" arrivalLane="1" arrivalPos="max">
        <route edges="-E1 -E4"/>
    </vehicle>
    <vehicle id="car-flow-route-E4_0_0-E1_0_max-5581999185648294116--7266489842092764092--0-0.22" type="actor-car--4238973458400510012" depart="168.60" departLane="0" departPos="0.00" departSpeed="max" arrivalLane="0" arrivalPos="max">
        <route edges="E4 E1"/>
    </vehicle>
    <vehicle id="car-flow-route--E1_0_0--E4_0_max--2345656016055477228--7266489842092764092--1-0.24" type="actor-car--4238973458400510012" depart="169.34" departLane="0" departPos="0.00" departSpeed="max" arrivalLane="0" arrivalPos="max">
        <route edges="-E1 -E4"/>
    </vehicle>
    <vehicle id="car-flow-route-E4_0_0-E1_0_max-5581999185648294116--7266489842092764092--0-0.23" type="actor-car--4238973458400510012" depart="176.16" departLane="0" departPos="0.00" departSpeed="max" arrivalLane="0" arrivalPos="max">
        <route edges="E4 E1"/>
    </vehicle>
    <vehicle id="car-flow-route--E1_0_0--E4_0_max--2345656016055477228--7266489842092764092--1-0.25" type="actor-car--4238973458400510012" depart="176.35" departLane="0" departPos="0.00" departSpeed="max" arrivalLane="0" arrivalPos="max">
        <route edges="-E1 -E4"/>
    </vehicle>
    <vehicle id="car-flow-route-E4_1_0--E0_0_max-2452033897916848868--7266489842092764092--3-0.18" type="actor-car--4238973458400510012" depart="176.64" departLane="1" departPos="0.00" departSpeed="max" arrivalLane="0" arrivalPos="max">
        <route edges="E4 -E0"/>
    </vehicle>
    <vehicle id="car-flow-route--E1_1_0--E4_1_max-248899497872519462--7266489842092764092--2-0.16" type="actor-car--4238973458400510012" depart="178.78" departLane="1" departPos="0.00" departSpeed="max" arrivalLane="1" arrivalPos="max">
        <route edges="-E1 -E4"/>
    </vehicle>
    <vehicle id="car-flow-route--E1_0_0--E4_0_max--2345656016055477228--7266489842092764092--1-0.26" type="actor-car--4238973458400510012" depart="183.35" departLane="0" departPos="0.00" departSpeed="max" arrivalLane="0" arrivalPos="max">
        <route edges="-E1 -E4"/>
    </vehicle>
    <vehicle id="car-flow-route-E4_0_0-E1_0_max-5581999185648294116--7266489842092764092--0-0.24" type="actor-car--4238973458400510012" depart="183.72" departLane="0" departPos="0.00" departSpeed="max" arrivalLane="0" arrivalPos="max">
        <route edges="E4 E1"/>
    </vehicle>
    <vehicle id="car-flow-route-E4_1_0--E0_0_max-2452033897916848868--7266489842092764092--3-0.19" type="actor-car--4238973458400510012" depart="186.31" departLane="1" departPos="0.00" departSpeed="max" arrivalLane="0" arrivalPos="max">
        <route edges="E4 -E0"/>
    </vehicle>
    <vehicle id="car-flow-route--E1_1_0--E4_1_max-248899497872519462--7266489842092764092--2-0.17" type="actor-car--4238973458400510012" depart="189.92" departLane="1" departPos="0.00" departSpeed="max" arrivalLane="1" arrivalPos="max">
        <route edges="-E1 -E4"/>
    </vehicle>
    <vehicle id="car-flow-route--E1_0_0--E4_0_max--2345656016055477228--7266489842092764092--1-0.27" type="actor-car--4238973458400510012" depart="190.36" departLane="0" departPos="0.00" departSpeed="max" arrivalLane="0" arrivalPos="max">
        <route edges="-E1 -E4"/>
    </vehicle>
    <vehicle id="car-flow-route-E4_0_0-E1_0_max-5581999185648294116--7266489842092764092--0-0.25" type="actor-car--4238973458400510012" depart="191.28" departLane="0" departPos="0.00" departSpeed="max" arrivalLane="0" arrivalPos="max">
        <route edges="E4 E1"/>
    </vehicle>
    <vehicle id="car-flow-route-E4_1_0--E0_0_max-2452033897916848868--7266489842092764092--3-0.20" type="actor-car--4238973458400510012" depart="195.98" departLane="1" departPos="0.00" departSpeed="max" arrivalLane="0" arrivalPos="max">
        <route edges="E4 -E0"/>
    </vehicle>
    <vehicle id="car-flow-route--E1_0_0--E4_0_max--2345656016055477228--7266489842092764092--1-0.28" type="actor-car--4238973458400510012" depart="197.36" departLane="0" departPos="0.00" departSpeed="max" arrivalLane="0" arrivalPos="max">
        <route edges="-E1 -E4"/>
    </vehicle>
    <vehicle id="car-flow-route-E4_0_0-E1_0_max-5581999185648294116--7266489842092764092--0-0.26" type="actor-car--4238973458400510012" depart="198.84" departLane="0" departPos="0.00" departSpeed="max" arrivalLane="0" arrivalPos="max">
        <route edges="E4 E1"/>
    </vehicle>
    <vehicle id="car-flow-route--E1_1_0--E4_1_max-248899497872519462--7266489842092764092--2-0.18" type="actor-car--4238973458400510012" depart="201.06" departLane="1" departPos="0.00" departSpeed="max" arrivalLane="1" arrivalPos="max">
        <route edges="-E1 -E4"/>
    </vehicle>
    <vehicle id="car-flow-route--E1_0_0--E4_0_max--2345656016055477228--7266489842092764092--1-0.29" type="actor-car--4238973458400510012" depart="204.37" departLane="0" departPos="0.00" departSpeed="max" arrivalLane="0" arrivalPos="max">
        <route edges="-E1 -E4"/>
    </vehicle>
    <vehicle id="car-flow-route-E4_1_0--E0_0_max-2452033897916848868--7266489842092764092--3-0.21" type="actor-car--4238973458400510012" depart="205.66" departLane="1" departPos="0.00" departSpeed="max" arrivalLane="0" arrivalPos="max">
        <route edges="E4 -E0"/>
    </vehicle>
    <vehicle id="car-flow-route-E4_0_0-E1_0_max-5581999185648294116--7266489842092764092--0-0.27" type="actor-car--4238973458400510012" depart="206.40" departLane="0" departPos="0.00" departSpeed="max" arrivalLane="0" arrivalPos="max">
        <route edges="E4 E1"/>
    </vehicle>
    <vehicle id="car-flow-route--E1_0_0--E4_0_max--2345656016055477228--7266489842092764092--1-0.30" type="actor-car--4238973458400510012" depart="211.38" departLane="0" departPos="0.00" departSpeed="max" arrivalLane="0" arrivalPos="max">
        <route edges="-E1 -E4"/>
    </vehicle>
    <vehicle id="car-flow-route--E1_1_0--E4_1_max-248899497872519462--7266489842092764092--2-0.19" type="actor-car--4238973458400510012" depart="212.20" departLane="1" departPos="0.00" departSpeed="max" arrivalLane="1" arrivalPos="max">
        <route edges="-E1 -E4"/>
    </vehicle>