<?xml version="1.0" encoding="UTF-8"?>

<!-- generated on 2023-05-28 21:07:47 by Eclipse SUMO duarouter Version 1.16.0
<configuration xmlns:xsi="http://www.w3.org/2001/XMLSchema-instance" xsi:noNamespaceSchemaLocation="http://sumo.dlr.de/xsd/duarouterConfiguration.xsd">

    <input>
        <net-file value="/home/smarts/scenarios/sumo/intersections/1_to_2lane_left_turn_t_agents_1/map.net.xml"/>
        <route-files value="/tmp/tmp3ijz04b8/trips.trips.xml"/>
    </input>

    <output>
        <output-file value="/home/smarts/scenarios/sumo/intersections/1_to_2lane_left_turn_t_agents_1/build/traffic/358.rou.xml"/>
    </output>

    <processing>
        <unsorted-input value="true"/>
        <repair value="true"/>
    </processing>

    <report>
        <error-log value="/root/.smarts/_duarouter_routing/traffic/358.log"/>
        <no-step-log value="true"/>
    </report>

    <random_number>
        <seed value="42"/>
    </random_number>

</configuration>
-->

<routes xmlns:xsi="http://www.w3.org/2001/XMLSchema-instance" xsi:noNamespaceSchemaLocation="http://sumo.dlr.de/xsd/routes_file.xsd">
    <vType id="actor-car--4238973458400510012" minGap="2.50" maxSpeed="55.50" speedFactor="normc(1.00,0.10,0.20,2.00)" vClass="passenger" accel="2.6" decel="4.5" sigma="0.5"/>
    <vehicle id="car-flow-route-E4_1_0--E0_0_max-2452033897916848868--7266489842092764092--2-0.0" type="actor-car--4238973458400510012" depart="0.09" departLane="1" departPos="0.00" departSpeed="max" arrivalLane="0" arrivalPos="max">
        <route edges="E4 -E0"/>
    </vehicle>
    <vehicle id="car-flow-route-E0_0_0--E4_0_max-3409258604394150170--7266489842092764092--3-0.0" type="actor-car--4238973458400510012" depart="0.88" departLane="0" departPos="0.00" departSpeed="max" arrivalLane="0" arrivalPos="max">
        <route edges="E0 -E4"/>
    </vehicle>
    <vehicle id="car-flow-route-E4_1_0-E1_1_max--2352894271058968195--7266489842092764092--0-0.0" type="actor-car--4238973458400510012" depart="1.25" departLane="1" departPos="0.00" departSpeed="max" arrivalLane="1" arrivalPos="max">
        <route edges="E4 E1"/>
    </vehicle>
    <vehicle id="car-flow-route--E1_1_0--E4_1_max-248899497872519462--7266489842092764092--1-0.0" type="actor-car--4238973458400510012" depart="1.47" departLane="1" departPos="0.00" departSpeed="max" arrivalLane="1" arrivalPos="max">
        <route edges="-E1 -E4"/>
    </vehicle>
    <vehicle id="car-flow-route-E0_0_0--E4_0_max-3409258604394150170--7266489842092764092--3-0.1" type="actor-car--4238973458400510012" depart="7.69" departLane="0" departPos="0.00" departSpeed="max" arrivalLane="0" arrivalPos="max">
        <route edges="E0 -E4"/>
    </vehicle>
    <vehicle id="car-flow-route--E1_1_0--E4_1_max-248899497872519462--7266489842092764092--1-0.1" type="actor-car--4238973458400510012" depart="7.99" departLane="1" departPos="0.00" departSpeed="max" arrivalLane="1" arrivalPos="max">
        <route edges="-E1 -E4"/>
    </vehicle>
    <vehicle id="car-flow-route-E4_1_0-E1_1_max--2352894271058968195--7266489842092764092--0-0.1" type="actor-car--4238973458400510012" depart="8.37" departLane="1" departPos="0.00" departSpeed="max" arrivalLane="1" arrivalPos="max">
        <route edges="E4 E1"/>
    </vehicle>
    <vehicle id="car-flow-route-E4_1_0--E0_0_max-2452033897916848868--7266489842092764092--2-0.1" type="actor-car--4238973458400510012" depart="11.18" departLane="1" departPos="0.00" departSpeed="max" arrivalLane="0" arrivalPos="max">
        <route edges="E4 -E0"/>
    </vehicle>
    <vehicle id="car-flow-route-E0_0_0--E4_0_max-3409258604394150170--7266489842092764092--3-0.2" type="actor-car--4238973458400510012" depart="14.50" departLane="0" departPos="0.00" departSpeed="max" arrivalLane="0" arrivalPos="max">
        <route edges="E0 -E4"/>
    </vehicle>
    <vehicle id="car-flow-route--E1_1_0--E4_1_max-248899497872519462--7266489842092764092--1-0.2" type="actor-car--4238973458400510012" depart="14.51" departLane="1" departPos="0.00" departSpeed="max" arrivalLane="1" arrivalPos="max">
        <route edges="-E1 -E4"/>
    </vehicle>
    <vehicle id="car-flow-route-E4_1_0-E1_1_max--2352894271058968195--7266489842092764092--0-0.2" type="actor-car--4238973458400510012" depart="15.49" departLane="1" departPos="0.00" departSpeed="max" arrivalLane="1" arrivalPos="max">
        <route edges="E4 E1"/>
    </vehicle>
    <vehicle id="car-flow-route--E1_1_0--E4_1_max-248899497872519462--7266489842092764092--1-0.3" type="actor-car--4238973458400510012" depart="21.03" departLane="1" departPos="0.00" departSpeed="max" arrivalLane="1" arrivalPos="max">
        <route edges="-E1 -E4"/>
    </vehicle>
    <vehicle id="car-flow-route-E0_0_0--E4_0_max-3409258604394150170--7266489842092764092--3-0.3" type="actor-car--4238973458400510012" depart="21.32" departLane="0" departPos="0.00" departSpeed="max" arrivalLane="0" arrivalPos="max">
        <route edges="E0 -E4"/>
    </vehicle>
    <vehicle id="car-flow-route-E4_1_0--E0_0_max-2452033897916848868--7266489842092764092--2-0.2" type="actor-car--4238973458400510012" depart="22.26" departLane="1" departPos="0.00" departSpeed="max" arrivalLane="0" arrivalPos="max">
        <route edges="E4 -E0"/>
    </vehicle>
    <vehicle id="car-flow-route-E4_1_0-E1_1_max--2352894271058968195--7266489842092764092--0-0.3" type="actor-car--4238973458400510012" depart="22.62" departLane="1" departPos="0.00" departSpeed="max" arrivalLane="1" arrivalPos="max">
        <route edges="E4 E1"/>
    </vehicle>
    <vehicle id="car-flow-route--E1_1_0--E4_1_max-248899497872519462--7266489842092764092--1-0.4" type="actor-car--4238973458400510012" depart="27.55" departLane="1" departPos="0.00" departSpeed="max" arrivalLane="1" arrivalPos="max">
        <route edges="-E1 -E4"/>
    </vehicle>
    <vehicle id="car-flow-route-E0_0_0--E4_0_max-3409258604394150170--7266489842092764092--3-0.4" type="actor-car--4238973458400510012" depart="28.13" departLane="0" departPos="0.00" departSpeed="max" arrivalLane="0" arrivalPos="max">
        <route edges="E0 -E4"/>
    </vehicle>
    <vehicle id="car-flow-route-E4_1_0-E1_1_max--2352894271058968195--7266489842092764092--0-0.4" type="actor-car--4238973458400510012" depart="29.74" departLane="1" departPos="0.00" departSpeed="max" arrivalLane="1" arrivalPos="max">
        <route edges="E4 E1"/>
    </vehicle>
    <vehicle id="car-flow-route-E4_1_0--E0_0_max-2452033897916848868--7266489842092764092--2-0.3" type="actor-car--4238973458400510012" depart="33.35" departLane="1" departPos="0.00" departSpeed="max" arrivalLane="0" arrivalPos="max">
        <route edges="E4 -E0"/>
    </vehicle>
    <vehicle id="car-flow-route--E1_1_0--E4_1_max-248899497872519462--7266489842092764092--1-0.5" type="actor-car--4238973458400510012" depart="34.08" departLane="1" departPos="0.00" departSpeed="max" arrivalLane="1" arrivalPos="max">
        <route edges="-E1 -E4"/>
    </vehicle>
    <vehicle id="car-flow-route-E0_0_0--E4_0_max-3409258604394150170--7266489842092764092--3-0.5" type="actor-car--4238973458400510012" depart="34.95" departLane="0" departPos="0.00" departSpeed="max" arrivalLane="0" arrivalPos="max">
        <route edges="E0 -E4"/>
    </vehicle>
    <vehicle id="car-flow-route-E4_1_0-E1_1_max--2352894271058968195--7266489842092764092--0-0.5" type="actor-car--4238973458400510012" depart="36.86" departLane="1" departPos="0.00" departSpeed="max" arrivalLane="1" arrivalPos="max">
        <route edges="E4 E1"/>
    </vehicle>
    <vehicle id="car-flow-route--E1_1_0--E4_1_max-248899497872519462--7266489842092764092--1-0.6" type="actor-car--4238973458400510012" depart="40.60" departLane="1" departPos="0.00" departSpeed="max" arrivalLane="1" arrivalPos="max">
        <route edges="-E1 -E4"/>
    </vehicle>
    <vehicle id="car-flow-route-E0_0_0--E4_0_max-3409258604394150170--7266489842092764092--3-0.6" type="actor-car--4238973458400510012" depart="41.76" departLane="0" departPos="0.00" departSpeed="max" arrivalLane="0" arrivalPos="max">
        <route edges="E0 -E4"/>
    </vehicle>
    <vehicle id="car-flow-route-E4_1_0-E1_1_max--2352894271058968195--7266489842092764092--0-0.6" type="actor-car--4238973458400510012" depart="43.99" departLane="1" departPos="0.00" departSpeed="max" arrivalLane="1" arrivalPos="max">
        <route edges="E4 E1"/>
    </vehicle>
    <vehicle id="car-flow-route-E4_1_0--E0_0_max-2452033897916848868--7266489842092764092--2-0.4" type="actor-car--4238973458400510012" depart="44.43" departLane="1" departPos="0.00" departSpeed="max" arrivalLane="0" arrivalPos="max">
        <route edges="E4 -E0"/>
    </vehicle>
    <vehicle id="car-flow-route--E1_1_0--E4_1_max-248899497872519462--7266489842092764092--1-0.7" type="actor-car--4238973458400510012" depart="47.12" departLane="1" departPos="0.00" departSpeed="max" arrivalLane="1" arrivalPos="max">
        <route edges="-E1 -E4"/>
    </vehicle>
    <vehicle id="car-flow-route-E0_0_0--E4_0_max-3409258604394150170--7266489842092764092--3-0.7" type="actor-car--4238973458400510012" depart="48.57" departLane="0" departPos="0.00" departSpeed="max" arrivalLane="0" arrivalPos="max">
        <route edges="E0 -E4"/>
    </vehicle>
    <vehicle id="car-flow-route-E4_1_0-E1_1_max--2352894271058968195--7266489842092764092--0-0.7" type="actor-car--4238973458400510012" depart="51.11" departLane="1" departPos="0.00" departSpeed="max" arrivalLane="1" arrivalPos="max">
        <route edges="E4 E1"/>
    </vehicle>
    <vehicle id="car-flow-route--E1_1_0--E4_1_max-248899497872519462--7266489842092764092--1-0.8" type="actor-car--4238973458400510012" depart="53.64" departLane="1" departPos="0.00" departSpeed="max" arrivalLane="1" arrivalPos="max">
        <route edges="-E1 -E4"/>
    </vehicle>
    <vehicle id="car-flow-route-E0_0_0--E4_0_max-3409258604394150170--7266489842092764092--3-0.8" type="actor-car--4238973458400510012" depart="55.39" departLane="0" departPos="0.00" departSpeed="max" arrivalLane="0" arrivalPos="max">
        <route edges="E0 -E4"/>
    </vehicle>
    <vehicle id="car-flow-route-E4_1_0--E0_0_max-2452033897916848868--7266489842092764092--2-0.5" type="actor-car--4238973458400510012" depart="55.51" departLane="1" departPos="0.00" departSpeed="max" arrivalLane="0" arrivalPos="max">
        <route edges="E4 -E0"/>
    </vehicle>
    <vehicle id="car-flow-route-E4_1_0-E1_1_max--2352894271058968195--7266489842092764092--0-0.8" type="actor-car--4238973458400510012" depart="58.23" departLane="1" departPos="0.00" departSpeed="max" arrivalLane="1" arrivalPos="max">
        <route edges="E4 E1"/>
    </vehicle>
    <vehicle id="car-flow-route--E1_1_0--E4_1_max-248899497872519462--7266489842092764092--1-0.9" type="actor-car--4238973458400510012" depart="60.16" departLane="1" departPos="0.00" departSpeed="max" arrivalLane="1" arrivalPos="max">
        <route edges="-E1 -E4"/>
    </vehicle>
    <vehicle id="car-flow-route-E0_0_0--E4_0_max-3409258604394150170--7266489842092764092--3-0.9" type="actor-car--4238973458400510012" depart="62.20" departLane="0" departPos="0.00" departSpeed="max" arrivalLane="0" arrivalPos="max">
        <route edges="E0 -E4"/>
    </vehicle>
    <vehicle id="car-flow-route-E4_1_0-E1_1_max--2352894271058968195--7266489842092764092--0-0.9" type="actor-car--4238973458400510012" depart="65.35" departLane="1" departPos="0.00" departSpeed="max" arrivalLane="1" arrivalPos="max">
        <route edges="E4 E1"/>
    </vehicle>
    <vehicle id="car-flow-route-E4_1_0--E0_0_max-2452033897916848868--7266489842092764092--2-0.6" type="actor-car--4238973458400510012" depart="66.60" departLane="1" departPos="0.00" departSpeed="max" arrivalLane="0" arrivalPos="max">
        <route edges="E4 -E0"/>
    </vehicle>
    <vehicle id="car-flow-route--E1_1_0--E4_1_max-248899497872519462--7266489842092764092--1-0.10" type="actor-car--4238973458400510012" depart="66.69" departLane="1" departPos="0.00" departSpeed="max" arrivalLane="1" arrivalPos="max">
        <route edges="-E1 -E4"/>
    </vehicle>
    <vehicle id="car-flow-route-E0_0_0--E4_0_max-3409258604394150170--7266489842092764092--3-0.10" type="actor-car--4238973458400510012" depart="69.02" departLane="0" departPos="0.00" departSpeed="max" arrivalLane="0" arrivalPos="max">
        <route edges="E0 -E4"/>
    </vehicle>
    <vehicle id="car-flow-route-E4_1_0-E1_1_max--2352894271058968195--7266489842092764092--0-0.10" type="actor-car--4238973458400510012" depart="72.48" departLane="1" departPos="0.00" departSpeed="max" arrivalLane="1" arrivalPos="max">
        <route edges="E4 E1"/>
    </vehicle>
    <vehicle id="car-flow-route--E1_1_0--E4_1_max-248899497872519462--7266489842092764092--1-0.11" type="actor-car--4238973458400510012" depart="73.21" departLane="1" departPos="0.00" departSpeed="max" arrivalLane="1" arrivalPos="max">
        <route edges="-E1 -E4"/>
    </vehicle>
    <vehicle id="car-flow-route-E0_0_0--E4_0_max-3409258604394150170--7266489842092764092--3-0.11" type="actor-car--4238973458400510012" depart="75.83" departLane="0" departPos="0.00" departSpeed="max" arrivalLane="0" arrivalPos="max">
        <route edges="E0 -E4"/>
    </vehicle>
    <vehicle id="car-flow-route-E4_1_0--E0_0_max-2452033897916848868--7266489842092764092--2-0.7" type="actor-car--4238973458400510012" depart="77.68" departLane="1" departPos="0.00" departSpeed="max" arrivalLane="0" arrivalPos="max">
        <route edges="E4 -E0"/>
    </vehicle>
    <vehicle id="car-flow-route-E4_1_0-E1_1_max--2352894271058968195--7266489842092764092--0-0.11" type="actor-car--4238973458400510012" depart="79.60" departLane="1" departPos="0.00" departSpeed="max" arrivalLane="1" arrivalPos="max">
        <route edges="E4 E1"/>
    </vehicle>
    <vehicle id="car-flow-route--E1_1_0--E4_1_max-248899497872519462--7266489842092764092--1-0.12" type="actor-car--4238973458400510012" depart="79.73" departLane="1" departPos="0.00" departSpeed="max" arrivalLane="1" arrivalPos="max">
        <route edges="-E1 -E4"/>
    </vehicle>
    <vehicle id="car-flow-route-E0_0_0--E4_0_max-3409258604394150170--7266489842092764092--3-0.12" type="actor-car--4238973458400510012" depart="82.64" departLane="0" departPos="0.00" departSpeed="max" arrivalLane="0" arrivalPos="max">
        <route edges="E0 -E4"/>
    </vehicle>
    <vehicle id="car-flow-route--E1_1_0--E4_1_max-248899497872519462--7266489842092764092--1-0.13" type="actor-car--4238973458400510012" depart="86.25" departLane="1" departPos="0.00" departSpeed="max" arrivalLane="1" arrivalPos="max">
        <route edges="-E1 -E4"/>
    </vehicle>
    <vehicle id="car-flow-route-E4_1_0-E1_1_max--2352894271058968195--7266489842092764092--0-0.12" type="actor-car--4238973458400510012" depart="86.72" departLane="1" departPos="0.00" departSpeed="max" arrivalLane="1" arrivalPos="max">
        <route edges="E4 E1"/>
    </vehicle>
    <vehicle id="car-flow-route-E4_1_0--E0_0_max-2452033897916848868--7266489842092764092--2-0.8" type="actor-car--4238973458400510012" depart="88.77" departLane="1" departPos="0.00" departSpeed="max" arrivalLane="0" arrivalPos="max">
        <route edges="E4 -E0"/>
    </vehicle>
    <vehicle id="car-flow-route-E0_0_0--E4_0_max-3409258604394150170--7266489842092764092--3-0.13" type="actor-car--4238973458400510012" depart="89.46" departLane="0" departPos="0.00" departSpeed="max" arrivalLane="0" arrivalPos="max">
        <route edges="E0 -E4"/>
    </vehicle>
    <vehicle id="car-flow-route--E1_1_0--E4_1_max-248899497872519462--7266489842092764092--1-0.14" type="actor-car--4238973458400510012" depart="92.77" departLane="1" departPos="0.00" departSpeed="max" arrivalLane="1" arrivalPos="max">
        <route edges="-E1 -E4"/>
    </vehicle>
    <vehicle id="car-flow-route-E4_1_0-E1_1_max--2352894271058968195--7266489842092764092--0-0.13" type="actor-car--4238973458400510012" depart="93.85" departLane="1" departPos="0.00" departSpeed="max" arrivalLane="1" arrivalPos="max">
        <route edges="E4 E1"/>
    </vehicle>
    <vehicle id="car-flow-route-E0_0_0--E4_0_max-3409258604394150170--7266489842092764092--3-0.14" type="actor-car--4238973458400510012" depart="96.27" departLane="0" departPos="0.00" departSpeed="max" arrivalLane="0" arrivalPos="max">
        <route edges="E0 -E4"/>
    </vehicle>
    <vehicle id="car-flow-route--E1_1_0--E4_1_max-248899497872519462--7266489842092764092--1-0.15" type="actor-car--4238973458400510012" depart="99.30" departLane="1" departPos="0.00" departSpeed="max" arrivalLane="1" arrivalPos="max">
        <route edges="-E1 -E4"/>
    </vehicle>
    <vehicle id="car-flow-route-E4_1_0--E0_0_max-2452033897916848868--7266489842092764092--2-0.9" type="actor-car--4238973458400510012" depart="99.85" departLane="1" departPos="0.00" departSpeed="max" arrivalLane="0" arrivalPos="max">
        <route edges="E4 -E0"/>
    </vehicle>
    <vehicle id="car-flow-route-E4_1_0-E1_1_max--2352894271058968195--7266489842092764092--0-0.14" type="actor-car--4238973458400510012" depart="100.97" departLane="1" departPos="0.00" departSpeed="max" arrivalLane="1" arrivalPos="max">
        <route edges="E4 E1"/>
    </vehicle>
    <vehicle id="car-flow-route-E0_0_0--E4_0_max-3409258604394150170--7266489842092764092--3-0.15" type="actor-car--4238973458400510012" depart="103.09" departLane="0" departPos="0.00" departSpeed="max" arrivalLane="0" arrivalPos="max">
        <route edges="E0 -E4"/>
    </vehicle>
    <vehicle id="car-flow-route--E1_1_0--E4_1_max-248899497872519462--7266489842092764092--1-0.16" type="actor-car--4238973458400510012" depart="105.82" departLane="1" departPos="0.00" departSpeed="max" arrivalLane="1" arrivalPos="max">
        <route edges="-E1 -E4"/>
    </vehicle>
    <vehicle id="car-flow-route-E4_1_0-E1_1_max--2352894271058968195--7266489842092764092--0-0.15" type="actor-car--4238973458400510012" depart="108.09" departLane="1" departPos="0.00" departSpeed="max" arrivalLane="1" arrivalPos="max">
        <route edges="E4 E1"/>
    </vehicle>
    <vehicle id="car-flow-route-E0_0_0--E4_0_max-3409258604394150170--7266489842092764092--3-0.16" type="actor-car--4238973458400510012" depart="109.90" departLane="0" departPos="0.00" departSpeed="max" arrivalLane="0" arrivalPos="max">
        <route edges="E0 -E4"/>
    </vehicle>
    <vehicle id="car-flow-route-E4_1_0--E0_0_max-2452033897916848868--7266489842092764092--2-0.10" type="actor-car--4238973458400510012" depart="110.93" departLane="1" departPos="0.00" departSpeed="max" arrivalLane="0" arrivalPos="max">
        <route edges="E4 -E0"/>
    </vehicle>
    <vehicle id="car-flow-route--E1_1_0--E4_1_max-248899497872519462--7266489842092764092--1-0.17" type="actor-car--4238973458400510012" depart="112.34" departLane="1" departPos="0.00" departSpeed="max" arrivalLane="1" arrivalPos="max">
        <route edges="-E1 -E4"/>
    </vehicle>
    <vehicle id="car-flow-route-E4_1_0-E1_1_max--2352894271058968195--7266489842092764092--0-0.16" type="actor-car--4238973458400510012" depart="115.22" departLane="1" departPos="0.00" departSpeed="max" arrivalLane="1" arrivalPos="max">
        <route edges="E4 E1"/>
    </vehicle>
    <vehicle id="car-flow-route-E0_0_0--E4_0_max-3409258604394150170--7266489842092764092--3-0.17" type="actor-car--4238973458400510012" depart="116.71" departLane="0" departPos="0.00" departSpeed="max" arrivalLane="0" arrivalPos="max">
        <route edges="E0 -E4"/>
    </vehicle>
    <vehicle id="car-flow-route--E1_1_0--E4_1_max-248899497872519462--7266489842092764092--1-0.18" type="actor-car--4238973458400510012" depart="118.86" departLane="1" departPos="0.00" departSpeed="max" arrivalLane="1" arrivalPos="max">
        <route edges="-E1 -E4"/>
    </vehicle>
    <vehicle id="car-flow-route-E4_1_0--E0_0_max-2452033897916848868--7266489842092764092--2-0.11" type="actor-car--4238973458400510012" depart="122.02" departLane="1" departPos="0.00" departSpeed="max" arrivalLane="0" arrivalPos="max">
        <route edges="E4 -E0"/>
    </vehicle>
    <vehicle id="car-flow-route-E4_1_0-E1_1_max--2352894271058968195--7266489842092764092--0-0.17" type="actor-car--4238973458400510012" depart="122.34" departLane="1" departPos="0.00" departSpeed="max" arrivalLane="1" arrivalPos="max">
        <route edges="E4 E1"/>
    </vehicle>
    <vehicle id="car-flow-route-E0_0_0--E4_0_max-3409258604394150170--7266489842092764092--3-0.18" type="actor-car--4238973458400510012" depart="123.53" departLane="0" departPos="0.00" departSpeed="max" arrivalLane="0" arrivalPos="max">
        <route edges="E0 -E4"/>
    </vehicle>
    <vehicle id="car-flow-route--E1_1_0--E4_1_max-248899497872519462--7266489842092764092--1-0.19" type="actor-car--4238973458400510012" depart="125.38" departLane="1" departPos="0.00" departSpeed="max" arrivalLane="1" arrivalPos="max">
        <route edges="-E1 -E4"/>
    </vehicle>
    <vehicle id="car-flow-route-E4_1_0-E1_1_max--2352894271058968195--7266489842092764092--0-0.18" type="actor-car--4238973458400510012" depart="129.46" departLane="1" departPos="0.00" departSpeed="max" arrivalLane="1" arrivalPos="max">
        <route edges="E4 E1"/>
    </vehicle>
    <vehicle id="car-flow-route-E0_0_0--E4_0_max-3409258604394150170--7266489842092764092--3-0.19" type="actor-car--4238973458400510012" depart="130.34" departLane="0" departPos="0.00" departSpeed="max" arrivalLane="0" arrivalPos="max">
        <route edges="E0 -E4"/>
    </vehicle>
    <vehicle id="car-flow-route--E1_1_0--E4_1_max-248899497872519462--7266489842092764092--1-0.20" type="actor-car--4238973458400510012" depart="131.91" departLane="1" departPos="0.00" departSpeed="max" arrivalLane="1" arrivalPos="max">
        <route edges="-E1 -E4"/>
    </vehicle>
    <vehicle id="car-flow-route-E4_1_0--E0_0_max-2452033897916848868--7266489842092764092--2-0.12" type="actor-car--4238973458400510012" depart="133.10" departLane="1" departPos="0.00" departSpeed="max" arrivalLane="0" arrivalPos="max">
        <route edges="E4 -E0"/>
    </vehicle>
    <vehicle id="car-flow-route-E4_1_0-E1_1_max--2352894271058968195--7266489842092764092--0-0.19" type="actor-car--4238973458400510012" depart="136.58" departLane="1" departPos="0.00" departSpeed="max" arrivalLane="1" arrivalPos="max">
        <route edges="E4 E1"/>
    </vehicle>
    <vehicle id="car-flow-route-E0_0_0--E4_0_max-3409258604394150170--7266489842092764092--3-0.20" type="actor-car--4238973458400510012" depart="137.16" departLane="0" departPos="0.00" departSpeed="max" arrivalLane="0" arrivalPos="max">
        <route edges="E0 -E4"/>
    </vehicle>
    <vehicle id="car-flow-route--E1_1_0--E4_1_max-248899497872519462--7266489842092764092--1-0.21" type="actor-car--4238973458400510012" depart="138.43" departLane="1" departPos="0.00" departSpeed="max" arrivalLane="1" arrivalPos="max">
        <route edges="-E1 -E4"/>
    </vehicle>
    <vehicle id="car-flow-route-E4_1_0-E1_1_max--2352894271058968195--7266489842092764092--0-0.20" type="actor-car--4238973458400510012" depart="143.71" departLane="1" departPos="0.00" departSpeed="max" arrivalLane="1" arrivalPos="max">
        <route edges="E4 E1"/>
    </vehicle>
    <vehicle id="car-flow-route-E0_0_0--E4_0_max-3409258604394150170--7266489842092764092--3-0.21" type="actor-car--4238973458400510012" depart="143.97" departLane="0" departPos="0.00" departSpeed="max" arrivalLane="0" arrivalPos="max">
        <route edges="E0 -E4"/>
    </vehicle>
    <vehicle id="car-flow-route-E4_1_0--E0_0_max-2452033897916848868--7266489842092764092--2-0.13" type="actor-car--4238973458400510012" depart="144.19" departLane="1" departPos="0.00" departSpeed="max" arrivalLane="0" arrivalPos="max">
        <route edges="E4 -E0"/>
    </vehicle>
    <vehicle id="car-flow-route--E1_1_0--E4_1_max-248899497872519462--7266489842092764092--1-0.22" type="actor-car--4238973458400510012" depart="144.95" departLane="1" departPos="0.00" departSpeed="max" arrivalLane="1" arrivalPos="max">
        <route edges="-E1 -E4"/>
    </vehicle>
    <vehicle id="car-flow-route-E0_0_0--E4_0_max-3409258604394150170--7266489842092764092--3-0.22" type="actor-car--4238973458400510012" depart="150.78" departLane="0" departPos="0.00" departSpeed="max" arrivalLane="0" arrivalPos="max">
        <route edges="E0 -E4"/>
    </vehicle>
    <vehicle id="car-flow-route-E4_1_0-E1_1_max--2352894271058968195--7266489842092764092--0-0.21" type="actor-car--4238973458400510012" depart="150.83" departLane="1" departPos="0.00" departSpeed="max" arrivalLane="1" arrivalPos="max">
        <route edges="E4 E1"/>
    </vehicle>
    <vehicle id="car-flow-route--E1_1_0--E4_1_max-248899497872519462--7266489842092764092--1-0.23" type="actor-car--4238973458400510012" depart="151.47" departLane="1" departPos="0.00" departSpeed="max" arrivalLane="1" arrivalPos="max">
        <route edges="-E1 -E4"/>
    </vehicle>
    <vehicle id="car-flow-route-E4_1_0--E0_0_max-2452033897916848868--7266489842092764092--2-0.14" type="actor-car--4238973458400510012" depart="155.27" departLane="1" departPos="0.00" departSpeed="max" arrivalLane="0" arrivalPos="max">
        <route edges="E4 -E0"/>
    </vehicle>
    <vehicle id="car-flow-route-E0_0_0--E4_0_max-3409258604394150170--7266489842092764092--3-0.23" type="actor-car--4238973458400510012" depart="157.60" departLane="0" departPos="0.00" departSpeed="max" arrivalLane="0" arrivalPos="max">
        <route edges="E0 -E4"/>
    </vehicle>
    <vehicle id="car-flow-route-E4_1_0-E1_1_max--2352894271058968195--7266489842092764092--0-0.22" type="actor-car--4238973458400510012" depart="157.95" departLane="1" departPos="0.00" departSpeed="max" arrivalLane="1" arrivalPos="max">
        <route edges="E4 E1"/>
    </vehicle>
    <vehicle id="car-flow-route--E1_1_0--E4_1_max-248899497872519462--7266489842092764092--1-0.24" type="actor-car--4238973458400510012" depart="157.99" departLane="1" departPos="0.00" departSpeed="max" arrivalLane="1" arrivalPos="max">
        <route edges="-E1 -E4"/>
    </vehicle>
    <vehicle id="car-flow-route-E0_0_0--E4_0_max-3409258604394150170--7266489842092764092--3-0.24" type="actor-car--4238973458400510012" depart="164.41" departLane="0" departPos="0.00" departSpeed="max" arrivalLane="0" arrivalPos="max">
        <route edges="E0 -E4"/>
    </vehicle>
    <vehicle id="car-flow-route--E1_1_0--E4_1_max-248899497872519462--7266489842092764092--1-0.25" type="actor-car--4238973458400510012" depart="164.52" departLane="1" departPos="0.00" departSpeed="max" arrivalLane="1" arrivalPos="max">
        <route edges="-E1 -E4"/>
    </vehicle>
    <vehicle id="car-flow-route-E4_1_0-E1_1_max--2352894271058968195--7266489842092764092--0-0.23" type="actor-car--4238973458400510012" depart="165.08" departLane="1" departPos="0.00" departSpeed="max" arrivalLane="1" arrivalPos="max">
        <route edges="E4 E1"/>
    </vehicle>
    <vehicle id="car-flow-route-E4_1_0--E0_0_max-2452033897916848868--7266489842092764092--2-0.15" type="actor-car--4238973458400510012" depart="166.35" departLane="1" departPos="0.00" departSpeed="max" arrivalLane="0" arrivalPos="max">
        <route edges="E4 -E0"/>
    </vehicle>
    <vehicle id="car-flow-route--E1_1_0--E4_1_max-248899497872519462--7266489842092764092--1-0.26" type="actor-car--4238973458400510012" depart="171.04" departLane="1" departPos="0.00" departSpeed="max" arrivalLane="1" arrivalPos="max">
        <route edges="-E1 -E4"/>
    </vehicle>
    <vehicle id="car-flow-route-E0_0_0--E4_0_max-3409258604394150170--7266489842092764092--3-0.25" type="actor-car--4238973458400510012" depart="171.23" departLane="0" departPos="0.00" departSpeed="max" arrivalLane="0" arrivalPos="max">
        <route edges="E0 -E4"/>
    </vehicle>
    <vehicle id="car-flow-route-E4_1_0-E1_1_max--2352894271058968195--7266489842092764092--0-0.24" type="actor-car--4238973458400510012" depart="172.20" departLane="1" departPos="0.00" departSpeed="max" arrivalLane="1" arrivalPos="max">
        <route edges="E4 E1"/>
    </vehicle>
    <vehicle id="car-flow-route-E4_1_0--E0_0_max-2452033897916848868--7266489842092764092--2-0.16" type="actor-car--4238973458400510012" depart="177.44" departLane="1" departPos="0.00" departSpeed="max" arrivalLane="0" arrivalPos="max">
        <route edges="E4 -E0"/>
    </vehicle>
    <vehicle id="car-flow-route--E1_1_0--E4_1_max-248899497872519462--7266489842092764092--1-0.27" type="actor-car--4238973458400510012" depart="177.56" departLane="1" departPos="0.00" departSpeed="max" arrivalLane="1" arrivalPos="max">
        <route edges="-E1 -E4"/>
    </vehicle>
    <vehicle id="car-flow-route-E0_0_0--E4_0_max-3409258604394150170--7266489842092764092--3-0.26" type="actor-car--4238973458400510012" depart="178.04" departLane="0" departPos="0.00" departSpeed="max" arrivalLane="0" arrivalPos="max">
        <route edges="E0 -E4"/>
    </vehicle>
    <vehicle id="car-flow-route-E4_1_0-E1_1_max--2352894271058968195--7266489842092764092--0-0.25" type="actor-car--4238973458400510012" depart="179.32" departLane="1" departPos="0.00" departSpeed="max" arrivalLane="1" arrivalPos="max">
        <route edges="E4 E1"/>
    </vehicle>
    <vehicle id="car-flow-route--E1_1_0--E4_1_max-248899497872519462--7266489842092764092--1-0.28" type="actor-car--4238973458400510012" depart="184.08" departLane="1" departPos="0.00" departSpeed="max" arrivalLane="1" arrivalPos="max">
        <route edges="-E1 -E4"/>
    </vehicle>
    <vehicle id="car-flow-route-E0_0_0--E4_0_max-3409258604394150170--7266489842092764092--3-0.27" type="actor-car--4238973458400510012" depart="184.85" departLane="0" departPos="0.00" departSpeed="max" arrivalLane="0" arrivalPos="max">
        <route edges="E0 -E4"/>
    </vehicle>
    <vehicle id="car-flow-route-E4_1_0-E1_1_max--2352894271058968195--7266489842092764092--0-0.26" type="actor-car--4238973458400510012" depart="186.45" departLane="1" departPos="0.00" departSpeed="max" arrivalLane="1" arrivalPos="max">
        <route edges="E4 E1"/>
    </vehicle>