<?xml version="1.0" encoding="UTF-8"?>

<!-- generated on 2023-05-28 21:07:47 by Eclipse SUMO duarouter Version 1.16.0
<configuration xmlns:xsi="http://www.w3.org/2001/XMLSchema-instance" xsi:noNamespaceSchemaLocation="http://sumo.dlr.de/xsd/duarouterConfiguration.xsd">

    <input>
        <net-file value="/home/smarts/scenarios/sumo/intersections/1_to_2lane_left_turn_t_agents_1/map.net.xml"/>
        <route-files value="/tmp/tmplhbd5ere/trips.trips.xml"/>
    </input>

    <output>
        <output-file value="/home/smarts/scenarios/sumo/intersections/1_to_2lane_left_turn_t_agents_1/build/traffic/372.rou.xml"/>
    </output>

    <processing>
        <unsorted-input value="true"/>
        <repair value="true"/>
    </processing>

    <report>
        <error-log value="/root/.smarts/_duarouter_routing/traffic/372.log"/>
        <no-step-log value="true"/>
    </report>

    <random_number>
        <seed value="42"/>
    </random_number>

</configuration>
-->

<routes xmlns:xsi="http://www.w3.org/2001/XMLSchema-instance" xsi:noNamespaceSchemaLocation="http://sumo.dlr.de/xsd/routes_file.xsd">
    <vType id="actor-car--4238973458400510012" minGap="2.50" maxSpeed="55.50" speedFactor="normc(1.00,0.10,0.20,2.00)" vClass="passenger" accel="2.6" decel="4.5" sigma="0.5"/>
    <vehicle id="car-flow-route-E0_0_0-E1_1_max-6371496855813406146--7266489842092764092--1-0.0" type="actor-car--4238973458400510012" depart="0.40" departLane="0" departPos="0.00" departSpeed="max" arrivalLane="1" arrivalPos="max">
        <route edges="E0 E1"/>
    </vehicle>
    <vehicle id="car-flow-route-E4_1_0--E0_0_max-2452033897916848868--7266489842092764092--2-0.0" type="actor-car--4238973458400510012" depart="0.48" departLane="1" departPos="0.00" departSpeed="max" arrivalLane="0" arrivalPos="max">
        <route edges="E4 -E0"/>
    </vehicle>
    <vehicle id="car-flow-route--E1_0_0--E4_0_max--2345656016055477228--7266489842092764092--0-0.0" type="actor-car--4238973458400510012" depart="0.61" departLane="0" departPos="0.00" departSpeed="max" arrivalLane="0" arrivalPos="max">
        <route edges="-E1 -E4"/>
    </vehicle>
    <vehicle id="car-flow-route--E1_0_0--E0_0_max--3949343141680771758--7266489842092764092--3-0.0" type="actor-car--4238973458400510012" depart="0.82" departLane="0" departPos="0.00" departSpeed="max" arrivalLane="0" arrivalPos="max">
        <route edges="-E1 -E0"/>
    </vehicle>
    <vehicle id="car-flow-route--E1_0_0--E4_0_max--2345656016055477228--7266489842092764092--0-0.1" type="actor-car--4238973458400510012" depart="6.74" departLane="0" departPos="0.00" departSpeed="max" arrivalLane="0" arrivalPos="max">
        <route edges="-E1 -E4"/>
    </vehicle>
    <vehicle id="car-flow-route--E1_0_0--E0_0_max--3949343141680771758--7266489842092764092--3-0.1" type="actor-car--4238973458400510012" depart="7.03" departLane="0" departPos="0.00" departSpeed="max" arrivalLane="0" arrivalPos="max">
        <route edges="-E1 -E0"/>
    </vehicle>
    <vehicle id="car-flow-route-E0_0_0-E1_1_max-6371496855813406146--7266489842092764092--1-0.1" type="actor-car--4238973458400510012" depart="7.50" departLane="0" departPos="0.00" departSpeed="max" arrivalLane="1" arrivalPos="max">
        <route edges="E0 E1"/>
    </vehicle>
    <vehicle id="car-flow-route-E4_1_0--E0_0_max-2452033897916848868--7266489842092764092--2-0.1" type="actor-car--4238973458400510012" depart="7.75" departLane="1" departPos="0.00" departSpeed="max" arrivalLane="0" arrivalPos="max">
        <route edges="E4 -E0"/>
    </vehicle>
    <vehicle id="car-flow-route--E1_0_0--E4_0_max--2345656016055477228--7266489842092764092--0-0.2" type="actor-car--4238973458400510012" depart="12.87" departLane="0" departPos="0.00" departSpeed="max" arrivalLane="0" arrivalPos="max">
        <route edges="-E1 -E4"/>
    </vehicle>
    <vehicle id="car-flow-route--E1_0_0--E0_0_max--3949343141680771758--7266489842092764092--3-0.2" type="actor-car--4238973458400510012" depart="13.24" departLane="0" departPos="0.00" departSpeed="max" arrivalLane="0" arrivalPos="max">
        <route edges="-E1 -E0"/>
    </vehicle>
    <vehicle id="car-flow-route-E0_0_0-E1_1_max-6371496855813406146--7266489842092764092--1-0.2" type="actor-car--4238973458400510012" depart="14.61" departLane="0" departPos="0.00" departSpeed="max" arrivalLane="1" arrivalPos="max">
        <route edges="E0 E1"/>
    </vehicle>
    <vehicle id="car-flow-route-E4_1_0--E0_0_max-2452033897916848868--7266489842092764092--2-0.2" type="actor-car--4238973458400510012" depart="15.02" departLane="1" departPos="0.00" departSpeed="max" arrivalLane="0" arrivalPos="max">
        <route edges="E4 -E0"/>
    </vehicle>
    <vehicle id="car-flow-route--E1_0_0--E4_0_max--2345656016055477228--7266489842092764092--0-0.3" type="actor-car--4238973458400510012" depart="18.99" departLane="0" departPos="0.00" departSpeed="max" arrivalLane="0" arrivalPos="max">
        <route edges="-E1 -E4"/>
    </vehicle>
    <vehicle id="car-flow-route--E1_0_0--E0_0_max--3949343141680771758--7266489842092764092--3-0.3" type="actor-car--4238973458400510012" depart="19.45" departLane="0" departPos="0.00" departSpeed="max" arrivalLane="0" arrivalPos="max">
        <route edges="-E1 -E0"/>
    </vehicle>
    <vehicle id="car-flow-route-E0_0_0-E1_1_max-6371496855813406146--7266489842092764092--1-0.3" type="actor-car--4238973458400510012" depart="21.72" departLane="0" departPos="0.00" departSpeed="max" arrivalLane="1" arrivalPos="max">
        <route edges="E0 E1"/>
    </vehicle>
    <vehicle id="car-flow-route-E4_1_0--E0_0_max-2452033897916848868--7266489842092764092--2-0.3" type="actor-car--4238973458400510012" depart="22.30" departLane="1" departPos="0.00" departSpeed="max" arrivalLane="0" arrivalPos="max">
        <route edges="E4 -E0"/>
    </vehicle>
    <vehicle id="car-flow-route--E1_0_0--E4_0_max--2345656016055477228--7266489842092764092--0-0.4" type="actor-car--4238973458400510012" depart="25.12" departLane="0" departPos="0.00" departSpeed="max" arrivalLane="0" arrivalPos="max">
        <route edges="-E1 -E4"/>
    </vehicle>
    <vehicle id="car-flow-route--E1_0_0--E0_0_max--3949343141680771758--7266489842092764092--3-0.4" type="actor-car--4238973458400510012" depart="25.66" departLane="0" departPos="0.00" departSpeed="max" arrivalLane="0" arrivalPos="max">
        <route edges="-E1 -E0"/>
    </vehicle>
    <vehicle id="car-flow-route-E0_0_0-E1_1_max-6371496855813406146--7266489842092764092--1-0.4" type="actor-car--4238973458400510012" depart="28.82" departLane="0" departPos="0.00" departSpeed="max" arrivalLane="1" arrivalPos="max">
        <route edges="E0 E1"/>
    </vehicle>
    <vehicle id="car-flow-route-E4_1_0--E0_0_max-2452033897916848868--7266489842092764092--2-0.4" type="actor-car--4238973458400510012" depart="29.57" departLane="1" departPos="0.00" departSpeed="max" arrivalLane="0" arrivalPos="max">
        <route edges="E4 -E0"/>
    </vehicle>
    <vehicle id="car-flow-route--E1_0_0--E4_0_max--2345656016055477228--7266489842092764092--0-0.5" type="actor-car--4238973458400510012" depart="31.25" departLane="0" departPos="0.00" departSpeed="max" arrivalLane="0" arrivalPos="max">
        <route edges="-E1 -E4"/>
    </vehicle>
    <vehicle id="car-flow-route--E1_0_0--E0_0_max--3949343141680771758--7266489842092764092--3-0.5" type="actor-car--4238973458400510012" depart="31.87" departLane="0" departPos="0.00" departSpeed="max" arrivalLane="0" arrivalPos="max">
        <route edges="-E1 -E0"/>
    </vehicle>
    <vehicle id="car-flow-route-E0_0_0-E1_1_max-6371496855813406146--7266489842092764092--1-0.5" type="actor-car--4238973458400510012" depart="35.93" departLane="0" departPos="0.00" departSpeed="max" arrivalLane="1" arrivalPos="max">
        <route edges="E0 E1"/>
    </vehicle>
    <vehicle id="car-flow-route-E4_1_0--E0_0_max-2452033897916848868--7266489842092764092--2-0.5" type="actor-car--4238973458400510012" depart="36.84" departLane="1" departPos="0.00" departSpeed="max" arrivalLane="0" arrivalPos="max">
        <route edges="E4 -E0"/>
    </vehicle>
    <vehicle id="car-flow-route--E1_0_0--E4_0_max--2345656016055477228--7266489842092764092--0-0.6" type="actor-car--4238973458400510012" depart="37.38" departLane="0" departPos="0.00" departSpeed="max" arrivalLane="0" arrivalPos="max">
        <route edges="-E1 -E4"/>
    </vehicle>
    <vehicle id="car-flow-route--E1_0_0--E0_0_max--3949343141680771758--7266489842092764092--3-0.6" type="actor-car--4238973458400510012" depart="38.08" departLane="0" departPos="0.00" departSpeed="max" arrivalLane="0" arrivalPos="max">
        <route edges="-E1 -E0"/>
    </vehicle>
    <vehicle id="car-flow-route-E0_0_0-E1_1_max-6371496855813406146--7266489842092764092--1-0.6" type="actor-car--4238973458400510012" depart="43.04" departLane="0" departPos="0.00" departSpeed="max" arrivalLane="1" arrivalPos="max">
        <route edges="E0 E1"/>
    </vehicle>
    <vehicle id="car-flow-route--E1_0_0--E4_0_max--2345656016055477228--7266489842092764092--0-0.7" type="actor-car--4238973458400510012" depart="43.51" departLane="0" departPos="0.00" departSpeed="max" arrivalLane="0" arrivalPos="max">
        <route edges="-E1 -E4"/>
    </vehicle>
    <vehicle id="car-flow-route-E4_1_0--E0_0_max-2452033897916848868--7266489842092764092--2-0.6" type="actor-car--4238973458400510012" depart="44.12" departLane="1" departPos="0.00" departSpeed="max" arrivalLane="0" arrivalPos="max">
        <route edges="E4 -E0"/>
    </vehicle>
    <vehicle id="car-flow-route--E1_0_0--E0_0_max--3949343141680771758--7266489842092764092--3-0.7" type="actor-car--4238973458400510012" depart="44.29" departLane="0" departPos="0.00" departSpeed="max" arrivalLane="0" arrivalPos="max">
        <route edges="-E1 -E0"/>
    </vehicle>
    <vehicle id="car-flow-route--E1_0_0--E4_0_max--2345656016055477228--7266489842092764092--0-0.8" type="actor-car--4238973458400510012" depart="49.64" departLane="0" departPos="0.00" departSpeed="max" arrivalLane="0" arrivalPos="max">
        <route edges="-E1 -E4"/>
    </vehicle>
    <vehicle id="car-flow-route-E0_0_0-E1_1_max-6371496855813406146--7266489842092764092--1-0.7" type="actor-car--4238973458400510012" depart="50.15" departLane="0" departPos="0.00" departSpeed="max" arrivalLane="1" arrivalPos="max">
        <route edges="E0 E1"/>
    </vehicle>
    <vehicle id="car-flow-route--E1_0_0--E0_0_max--3949343141680771758--7266489842092764092--3-0.8" type="actor-car--4238973458400510012" depart="50.49" departLane="0" departPos="0.00" departSpeed="max" arrivalLane="0" arrivalPos="max">
        <route edges="-E1 -E0"/>
    </vehicle>
    <vehicle id="car-flow-route-E4_1_0--E0_0_max-2452033897916848868--7266489842092764092--2-0.7" type="actor-car--4238973458400510012" depart="51.39" departLane="1" departPos="0.00" departSpeed="max" arrivalLane="0" arrivalPos="max">
        <route edges="E4 -E0"/>
    </vehicle>
    <vehicle id="car-flow-route--E1_0_0--E4_0_max--2345656016055477228--7266489842092764092--0-0.9" type="actor-car--4238973458400510012" depart="55.77" departLane="0" departPos="0.00" departSpeed="max" arrivalLane="0" arrivalPos="max">
        <route edges="-E1 -E4"/>
    </vehicle>
    <vehicle id="car-flow-route--E1_0_0--E0_0_max--3949343141680771758--7266489842092764092--3-0.9" type="actor-car--4238973458400510012" depart="56.70" departLane="0" departPos="0.00" departSpeed="max" arrivalLane="0" arrivalPos="max">
        <route edges="-E1 -E0"/>
    </vehicle>
    <vehicle id="car-flow-route-E0_0_0-E1_1_max-6371496855813406146--7266489842092764092--1-0.8" type="actor-car--4238973458400510012" depart="57.25" departLane="0" departPos="0.00" departSpeed="max" arrivalLane="1" arrivalPos="max">
        <route edges="E0 E1"/>
    </vehicle>
    <vehicle id="car-flow-route-E4_1_0--E0_0_max-2452033897916848868--7266489842092764092--2-0.8" type="actor-car--4238973458400510012" depart="58.66" departLane="1" departPos="0.00" departSpeed="max" arrivalLane="0" arrivalPos="max">
        <route edges="E4 -E0"/>
    </vehicle>
    <vehicle id="car-flow-route--E1_0_0--E4_0_max--2345656016055477228--7266489842092764092--0-0.10" type="actor-car--4238973458400510012" depart="61.90" departLane="0" departPos="0.00" departSpeed="max" arrivalLane="0" arrivalPos="max">
        <route edges="-E1 -E4"/>
    </vehicle>
    <vehicle id="car-flow-route--E1_0_0--E0_0_max--3949343141680771758--7266489842092764092--3-0.10" type="actor-car--4238973458400510012" depart="62.91" departLane="0" departPos="0.00" departSpeed="max" arrivalLane="0" arrivalPos="max">
        <route edges="-E1 -E0"/>
    </vehicle>
    <vehicle id="car-flow-route-E0_0_0-E1_1_max-6371496855813406146--7266489842092764092--1-0.9" type="actor-car--4238973458400510012" depart="64.36" departLane="0" departPos="0.00" departSpeed="max" arrivalLane="1" arrivalPos="max">
        <route edges="E0 E1"/>
    </vehicle>
    <vehicle id="car-flow-route-E4_1_0--E0_0_max-2452033897916848868--7266489842092764092--2-0.9" type="actor-car--4238973458400510012" depart="65.93" departLane="1" departPos="0.00" departSpeed="max" arrivalLane="0" arrivalPos="max">
        <route edges="E4 -E0"/>
    </vehicle>
    <vehicle id="car-flow-route--E1_0_0--E4_0_max--2345656016055477228--7266489842092764092--0-0.11" type="actor-car--4238973458400510012" depart="68.03" departLane="0" departPos="0.00" departSpeed="max" arrivalLane="0" arrivalPos="max">
        <route edges="-E1 -E4"/>
    </vehicle>
    <vehicle id="car-flow-route--E1_0_0--E0_0_max--3949343141680771758--7266489842092764092--3-0.11" type="actor-car--4238973458400510012" depart="69.12" departLane="0" departPos="0.00" departSpeed="max" arrivalLane="0" arrivalPos="max">
        <route edges="-E1 -E0"/>
    </vehicle>
    <vehicle id="car-flow-route-E0_0_0-E1_1_max-6371496855813406146--7266489842092764092--1-0.10" type="actor-car--4238973458400510012" depart="71.47" departLane="0" departPos="0.00" departSpeed="max" arrivalLane="1" arrivalPos="max">
        <route edges="E0 E1"/>
    </vehicle>
    <vehicle id="car-flow-route-E4_1_0--E0_0_max-2452033897916848868--7266489842092764092--2-0.10" type="actor-car--4238973458400510012" depart="73.21" departLane="1" departPos="0.00" departSpeed="max" arrivalLane="0" arrivalPos="max">
        <route edges="E4 -E0"/>
    </vehicle>
    <vehicle id="car-flow-route--E1_0_0--E4_0_max--2345656016055477228--7266489842092764092--0-0.12" type="actor-car--4238973458400510012" depart="74.16" departLane="0" departPos="0.00" departSpeed="max" arrivalLane="0" arrivalPos="max">
        <route edges="-E1 -E4"/>
    </vehicle>
    <vehicle id="car-flow-route--E1_0_0--E0_0_max--3949343141680771758--7266489842092764092--3-0.12" type="actor-car--4238973458400510012" depart="75.33" departLane="0" departPos="0.00" departSpeed="max" arrivalLane="0" arrivalPos="max">
        <route edges="-E1 -E0"/>
    </vehicle>
    <vehicle id="car-flow-route-E0_0_0-E1_1_max-6371496855813406146--7266489842092764092--1-0.11" type="actor-car--4238973458400510012" depart="78.57" departLane="0" departPos="0.00" departSpeed="max" arrivalLane="1" arrivalPos="max">
        <route edges="E0 E1"/>
    </vehicle>
    <vehicle id="car-flow-route--E1_0_0--E4_0_max--2345656016055477228--7266489842092764092--0-0.13" type="actor-car--4238973458400510012" depart="80.28" departLane="0" departPos="0.00" departSpeed="max" arrivalLane="0" arrivalPos="max">
        <route edges="-E1 -E4"/>
    </vehicle>
    <vehicle id="car-flow-route-E4_1_0--E0_0_max-2452033897916848868--7266489842092764092--2-0.11" type="actor-car--4238973458400510012" depart="80.48" departLane="1" departPos="0.00" departSpeed="max" arrivalLane="0" arrivalPos="max">
        <route edges="E4 -E0"/>
    </vehicle>
    <vehicle id="car-flow-route--E1_0_0--E0_0_max--3949343141680771758--7266489842092764092--3-0.13" type="actor-car--4238973458400510012" depart="81.54" departLane="0" departPos="0.00" departSpeed="max" arrivalLane="0" arrivalPos="max">
        <route edges="-E1 -E0"/>
    </vehicle>
    <vehicle id="car-flow-route-E0_0_0-E1_1_max-6371496855813406146--7266489842092764092--1-0.12" type="actor-car--4238973458400510012" depart="85.68" departLane="0" departPos="0.00" departSpeed="max" arrivalLane="1" arrivalPos="max">
        <route edges="E0 E1"/>
    </vehicle>
    <vehicle id="car-flow-route--E1_0_0--E4_0_max--2345656016055477228--7266489842092764092--0-0.14" type="actor-car--4238973458400510012" depart="86.41" departLane="0" departPos="0.00" departSpeed="max" arrivalLane="0" arrivalPos="max">
        <route edges="-E1 -E4"/>
    </vehicle>
    <vehicle id="car-flow-route--E1_0_0--E0_0_max--3949343141680771758--7266489842092764092--3-0.14" type="actor-car--4238973458400510012" depart="87.75" departLane="0" departPos="0.00" departSpeed="max" arrivalLane="0" arrivalPos="max">
        <route edges="-E1 -E0"/>
    </vehicle>
    <vehicle id="car-flow-route-E4_1_0--E0_0_max-2452033897916848868--7266489842092764092--2-0.12" type="actor-car--4238973458400510012" depart="87.75" departLane="1" departPos="0.00" departSpeed="max" arrivalLane="0" arrivalPos="max">
        <route edges="E4 -E0"/>
    </vehicle>
    <vehicle id="car-flow-route--E1_0_0--E4_0_max--2345656016055477228--7266489842092764092--0-0.15" type="actor-car--4238973458400510012" depart="92.54" departLane="0" departPos="0.00" departSpeed="max" arrivalLane="0" arrivalPos="max">
        <route edges="-E1 -E4"/>
    </vehicle>
    <vehicle id="car-flow-route-E0_0_0-E1_1_max-6371496855813406146--7266489842092764092--1-0.13" type="actor-car--4238973458400510012" depart="92.79" departLane="0" departPos="0.00" departSpeed="max" arrivalLane="1" arrivalPos="max">
        <route edges="E0 E1"/>
    </vehicle>
    <vehicle id="car-flow-route--E1_0_0--E0_0_max--3949343141680771758--7266489842092764092--3-0.15" type="actor-car--4238973458400510012" depart="93.96" departLane="0" departPos="0.00" departSpeed="max" arrivalLane="0" arrivalPos="max">
        <route edges="-E1 -E0"/>
    </vehicle>
    <vehicle id="car-flow-route-E4_1_0--E0_0_max-2452033897916848868--7266489842092764092--2-0.13" type="actor-car--4238973458400510012" depart="95.03" departLane="1" departPos="0.00" departSpeed="max" arrivalLane="0" arrivalPos="max">
        <route edges="E4 -E0"/>
    </vehicle>
    <vehicle id="car-flow-route--E1_0_0--E4_0_max--2345656016055477228--7266489842092764092--0-0.16" type="actor-car--4238973458400510012" depart="98.67" departLane="0" departPos="0.00" departSpeed="max" arrivalLane="0" arrivalPos="max">
        <route edges="-E1 -E4"/>
    </vehicle>
    <vehicle id="car-flow-route-E0_0_0-E1_1_max-6371496855813406146--7266489842092764092--1-0.14" type="actor-car--4238973458400510012" depart="99.89" departLane="0" departPos="0.00" departSpeed="max" arrivalLane="1" arrivalPos="max">
        <route edges="E0 E1"/>
    </vehicle>
    <vehicle id="car-flow-route--E1_0_0--E0_0_max--3949343141680771758--7266489842092764092--3-0.16" type="actor-car--4238973458400510012" depart="100.17" departLane="0" departPos="0.00" departSpeed="max" arrivalLane="0" arrivalPos="max">
        <route edges="-E1 -E0"/>
    </vehicle>
    <vehicle id="car-flow-route-E4_1_0--E0_0_max-2452033897916848868--7266489842092764092--2-0.14" type="actor-car--4238973458400510012" depart="102.30" departLane="1" departPos="0.00" departSpeed="max" arrivalLane="0" arrivalPos="max">
        <route edges="E4 -E0"/>
    </vehicle>
    <vehicle id="car-flow-route--E1_0_0--E4_0_max--2345656016055477228--7266489842092764092--0-0.17" type="actor-car--4238973458400510012" depart="104.80" departLane="0" departPos="0.00" departSpeed="max" arrivalLane="0" arrivalPos="max">
        <route edges="-E1 -E4"/>
    </vehicle>
    <vehicle id="car-flow-route--E1_0_0--E0_0_max--3949343141680771758--7266489842092764092--3-0.17" type="actor-car--4238973458400510012" depart="106.38" departLane="0" departPos="0.00" departSpeed="max" arrivalLane="0" arrivalPos="max">
        <route edges="-E1 -E0"/>
    </vehicle>
    <vehicle id="car-flow-route-E0_0_0-E1_1_max-6371496855813406146--7266489842092764092--1-0.15" type="actor-car--4238973458400510012" depart="107.00" departLane="0" departPos="0.00" departSpeed="max" arrivalLane="1" arrivalPos="max">
        <route edges="E0 E1"/>
    </vehicle>
    <vehicle id="car-flow-route-E4_1_0--E0_0_max-2452033897916848868--7266489842092764092--2-0.15" type="actor-car--4238973458400510012" depart="109.57" departLane="1" departPos="0.00" departSpeed="max" arrivalLane="0" arrivalPos="max">
        <route edges="E4 -E0"/>
    </vehicle>
    <vehicle id="car-flow-route--E1_0_0--E4_0_max--2345656016055477228--7266489842092764092--0-0.18" type="actor-car--4238973458400510012" depart="110.93" departLane="0" departPos="0.00" departSpeed="max" arrivalLane="0" arrivalPos="max">
        <route edges="-E1 -E4"/>
    </vehicle>
    <vehicle id="car-flow-route--E1_0_0--E0_0_max--3949343141680771758--7266489842092764092--3-0.18" type="actor-car--4238973458400510012" depart="112.58" departLane="0" departPos="0.00" departSpeed="max" arrivalLane="0" arrivalPos="max">
        <route edges="-E1 -E0"/>
    </vehicle>
    <vehicle id="car-flow-route-E0_0_0-E1_1_max-6371496855813406146--7266489842092764092--1-0.16" type="actor-car--4238973458400510012" depart="114.11" departLane="0" departPos="0.00" departSpeed="max" arrivalLane="1" arrivalPos="max">
        <route edges="E0 E1"/>
    </vehicle>
    <vehicle id="car-flow-route-E4_1_0--E0_0_max-2452033897916848868--7266489842092764092--2-0.16" type="actor-car--4238973458400510012" depart="116.85" departLane="1" departPos="0.00" departSpeed="max" arrivalLane="0" arrivalPos="max">
        <route edges="E4 -E0"/>
    </vehicle>
    <vehicle id="car-flow-route--E1_0_0--E4_0_max--2345656016055477228--7266489842092764092--0-0.19" type="actor-car--4238973458400510012" depart="117.06" departLane="0" departPos="0.00" departSpeed="max" arrivalLane="0" arrivalPos="max">
        <route edges="-E1 -E4"/>
    </vehicle>
    <vehicle id="car-flow-route--E1_0_0--E0_0_max--3949343141680771758--7266489842092764092--3-0.19" type="actor-car--4238973458400510012" depart="118.79" departLane="0" departPos="0.00" departSpeed="max" arrivalLane="0" arrivalPos="max">
        <route edges="-E1 -E0"/>
    </vehicle>
    <vehicle id="car-flow-route-E0_0_0-E1_1_max-6371496855813406146--7266489842092764092--1-0.17" type="actor-car--4238973458400510012" depart="121.22" departLane="0" departPos="0.00" departSpeed="max" arrivalLane="1" arrivalPos="max">
        <route edges="E0 E1"/>
    </vehicle>
    <vehicle id="car-flow-route--E1_0_0--E4_0_max--2345656016055477228--7266489842092764092--0-0.20" type="actor-car--4238973458400510012" depart="123.19" departLane="0" departPos="0.00" departSpeed="max" arrivalLane="0" arrivalPos="max">
        <route edges="-E1 -E4"/>
    </vehicle>
    <vehicle id="car-flow-route-E4_1_0--E0_0_max-2452033897916848868--7266489842092764092--2-0.17" type="actor-car--4238973458400510012" depart="124.12" departLane="1" departPos="0.00" departSpeed="max" arrivalLane="0" arrivalPos="max">
        <route edges="E4 -E0"/>
    </vehicle>
    <vehicle id="car-flow-route--E1_0_0--E0_0_max--3949343141680771758--7266489842092764092--3-0.20" type="actor-car--4238973458400510012" depart="125.00" departLane="0" departPos="0.00" departSpeed="max" arrivalLane="0" arrivalPos="max">
        <route edges="-E1 -E0"/>
    </vehicle>
    <vehicle id="car-flow-route-E0_0_0-E1_1_max-6371496855813406146--7266489842092764092--1-0.18" type="actor-car--4238973458400510012" depart="128.32" departLane="0" departPos="0.00" departSpeed="max" arrivalLane="1" arrivalPos="max">
        <route edges="E0 E1"/>
    </vehicle>
    <vehicle id="car-flow-route--E1_0_0--E4_0_max--2345656016055477228--7266489842092764092--0-0.21" type="actor-car--4238973458400510012" depart="129.32" departLane="0" departPos="0.00" departSpeed="max" arrivalLane="0" arrivalPos="max">
        <route edges="-E1 -E4"/>
    </vehicle>
    <vehicle id="car-flow-route--E1_0_0--E0_0_max--3949343141680771758--7266489842092764092--3-0.21" type="actor-car--4238973458400510012" depart="131.21" departLane="0" departPos="0.00" departSpeed="max" arrivalLane="0" arrivalPos="max">
        <route edges="-E1 -E0"/>
    </vehicle>
    <vehicle id="car-flow-route-E4_1_0--E0_0_max-2452033897916848868--7266489842092764092--2-0.18" type="actor-car--4238973458400510012" depart="131.39" departLane="1" departPos="0.00" departSpeed="max" arrivalLane="0" arrivalPos="max">
        <route edges="E4 -E0"/>
    </vehicle>
    <vehicle id="car-flow-route-E0_0_0-E1_1_max-6371496855813406146--7266489842092764092--1-0.19" type="actor-car--4238973458400510012" depart="135.43" departLane="0" departPos="0.00" departSpeed="max" arrivalLane="1" arrivalPos="max">
        <route edges="E0 E1"/>
    </vehicle>
    <vehicle id="car-flow-route--E1_0_0--E4_0_max--2345656016055477228--7266489842092764092--0-0.22" type="actor-car--4238973458400510012" depart="135.45" departLane="0" departPos="0.00" departSpeed="max" arrivalLane="0" arrivalPos="max">
        <route edges="-E1 -E4"/>
    </vehicle>
    <vehicle id="car-flow-route--E1_0_0--E0_0_max--3949343141680771758--7266489842092764092--3-0.22" type="actor-car--4238973458400510012" depart="137.42" departLane="0" departPos="0.00" departSpeed="max" arrivalLane="0" arrivalPos="max">
        <route edges="-E1 -E0"/>
    </vehicle>
    <vehicle id="car-flow-route-E4_1_0--E0_0_max-2452033897916848868--7266489842092764092--2-0.19" type="actor-car--4238973458400510012" depart="138.66" departLane="1" departPos="0.00" departSpeed="max" arrivalLane="0" arrivalPos="max">
        <route edges="E4 -E0"/>
    </vehicle>
    <vehicle id="car-flow-route--E1_0_0--E4_0_max--2345656016055477228--7266489842092764092--0-0.23" type="actor-car--4238973458400510012" depart="141.57" departLane="0" departPos="0.00" departSpeed="max" arrivalLane="0" arrivalPos="max">
        <route edges="-E1 -E4"/>
    </vehicle>
    <vehicle id="car-flow-route-E0_0_0-E1_1_max-6371496855813406146--7266489842092764092--1-0.20" type="actor-car--4238973458400510012" depart="142.54" departLane="0" departPos="0.00" departSpeed="max" arrivalLane="1" arrivalPos="max">
        <route edges="E0 E1"/>
    </vehicle>
    <vehicle id="car-flow-route--E1_0_0--E0_0_max--3949343141680771758--7266489842092764092--3-0.23" type="actor-car--4238973458400510012" depart="143.63" departLane="0" departPos="0.00" departSpeed="max" arrivalLane="0" arrivalPos="max">
        <route edges="-E1 -E0"/>
    </vehicle>
    <vehicle id="car-flow-route-E4_1_0--E0_0_max-2452033897916848868--7266489842092764092--2-0.20" type="actor-car--4238973458400510012" depart="145.94" departLane="1" departPos="0.00" departSpeed="max" arrivalLane="0" arrivalPos="max">
        <route edges="E4 -E0"/>
    </vehicle>
    <vehicle id="car-flow-route--E1_0_0--E4_0_max--2345656016055477228--7266489842092764092--0-0.24" type="actor-car--4238973458400510012" depart="147.70" departLane="0" departPos="0.00" departSpeed="max" arrivalLane="0" arrivalPos="max">
        <route edges="-E1 -E4"/>
    </vehicle>
    <vehicle id="car-flow-route-E0_0_0-E1_1_max-6371496855813406146--7266489842092764092--1-0.21" type="actor-car--4238973458400510012" depart="149.64" departLane="0" departPos="0.00" departSpeed="max" arrivalLane="1" arrivalPos="max">
        <route edges="E0 E1"/>
    </vehicle>
    <vehicle id="car-flow-route--E1_0_0--E0_0_max--3949343141680771758--7266489842092764092--3-0.24" type="actor-car--4238973458400510012" depart="149.84" departLane="0" departPos="0.00" departSpeed="max" arrivalLane="0" arrivalPos="max">
        <route edges="-E1 -E0"/>
    </vehicle>
    <vehicle id="car-flow-route-E4_1_0--E0_0_max-2452033897916848868--7266489842092764092--2-0.21" type="actor-car--4238973458400510012" depart="153.21" departLane="1" departPos="0.00" departSpeed="max" arrivalLane="0" arrivalPos="max">
        <route edges="E4 -E0"/>
    </vehicle>
    <vehicle id="car-flow-route--E1_0_0--E4_0_max--2345656016055477228--7266489842092764092--0-0.25" type="actor-car--4238973458400510012" depart="153.83" departLane="0" departPos="0.00" departSpeed="max" arrivalLane="0" arrivalPos="max">
        <route edges="-E1 -E4"/>
    </vehicle>
    <vehicle id="car-flow-route--E1_0_0--E0_0_max--3949343141680771758--7266489842092764092--3-0.25" type="actor-car--4238973458400510012" depart="156.05" departLane="0" departPos="0.00" departSpeed="max" arrivalLane="0" arrivalPos="max">
        <route edges="-E1 -E0"/>
    </vehicle>
    <vehicle id="car-flow-route-E0_0_0-E1_1_max-6371496855813406146--7266489842092764092--1-0.22" type="actor-car--4238973458400510012" depart="156.75" departLane="0" departPos="0.00" departSpeed="max" arrivalLane="1" arrivalPos="max">
        <route edges="E0 E1"/>
    </vehicle>
    <vehicle id="car-flow-route--E1_0_0--E4_0_max--2345656016055477228--7266489842092764092--0-0.26" type="actor-car--4238973458400510012" depart="159.96" departLane="0" departPos="0.00" departSpeed="max" arrivalLane="0" arrivalPos="max">
        <route edges="-E1 -E4"/>
    </vehicle>
    <vehicle id="car-flow-route-E4_1_0--E0_0_max-2452033897916848868--7266489842092764092--2-0.22" type="actor-car--4238973458400510012" depart="160.48" departLane="1" departPos="0.00" departSpeed="max" arrivalLane="0" arrivalPos="max">
        <route edges="E4 -E0"/>
    </vehicle>
    <vehicle id="car-flow-route--E1_0_0--E0_0_max--3949343141680771758--7266489842092764092--3-0.26" type="actor-car--4238973458400510012" depart="162.26" departLane="0" departPos="0.00" departSpeed="max" arrivalLane="0" arrivalPos="max">
        <route edges="-E1 -E0"/>
    </vehicle>
    <vehicle id="car-flow-route-E0_0_0-E1_1_max-6371496855813406146--7266489842092764092--1-0.23" type="actor-car--4238973458400510012" depart="163.86" departLane="0" departPos="0.00" departSpeed="max" arrivalLane="1" arrivalPos="max">
        <route edges="E0 E1"/>
    </vehicle>