<?xml version="1.0" encoding="UTF-8"?>

<!-- generated on 2023-05-28 21:07:34 by Eclipse SUMO duarouter Version 1.16.0
<configuration xmlns:xsi="http://www.w3.org/2001/XMLSchema-instance" xsi:noNamespaceSchemaLocation="http://sumo.dlr.de/xsd/duarouterConfiguration.xsd">

    <input>
        <net-file value="/home/smarts/scenarios/sumo/intersections/1_to_2lane_left_turn_t_agents_1/map.net.xml"/>
        <route-files value="/tmp/tmpigycrhkf/trips.trips.xml"/>
    </input>

    <output>
        <output-file value="/home/smarts/scenarios/sumo/intersections/1_to_2lane_left_turn_t_agents_1/build/traffic/54.rou.xml"/>
    </output>

    <processing>
        <unsorted-input value="true"/>
        <repair value="true"/>
    </processing>

    <report>
        <error-log value="/root/.smarts/_duarouter_routing/traffic/54.log"/>
        <no-step-log value="true"/>
    </report>

    <random_number>
        <seed value="42"/>
    </random_number>

</configuration>
-->

<routes xmlns:xsi="http://www.w3.org/2001/XMLSchema-instance" xsi:noNamespaceSchemaLocation="http://sumo.dlr.de/xsd/routes_file.xsd">
    <vType id="actor-car--4238973458400510012" minGap="2.50" maxSpeed="55.50" speedFactor="normc(1.00,0.10,0.20,2.00)" vClass="passenger" accel="2.6" decel="4.5" sigma="0.5"/>
    <vehicle id="car-flow-route-E4_0_0-E1_0_max-5581999185648294116--7266489842092764092--0-0.0" type="actor-car--4238973458400510012" depart="0.74" departLane="0" departPos="0.00" departSpeed="max" arrivalLane="0" arrivalPos="max">
        <route edges="E4 E1"/>
    </vehicle>
    <vehicle id="car-flow-route-E0_0_0--E4_0_max-3409258604394150170--7266489842092764092--2-0.0" type="actor-car--4238973458400510012" depart="1.75" departLane="0" departPos="0.00" departSpeed="max" arrivalLane="0" arrivalPos="max">
        <route edges="E0 -E4"/>
    </vehicle>
    <vehicle id="car-flow-route-E4_1_0--E0_0_max-2452033897916848868--7266489842092764092--1-0.0" type="actor-car--4238973458400510012" depart="1.86" departLane="1" departPos="0.00" departSpeed="max" arrivalLane="0" arrivalPos="max">
        <route edges="E4 -E0"/>
    </vehicle>
    <vehicle id="car-flow-route-E4_0_0-E1_0_max-5581999185648294116--7266489842092764092--0-0.1" type="actor-car--4238973458400510012" depart="7.09" departLane="0" departPos="0.00" departSpeed="max" arrivalLane="0" arrivalPos="max">
        <route edges="E4 E1"/>
    </vehicle>
    <vehicle id="car-flow-route-E4_1_0--E0_0_max-2452033897916848868--7266489842092764092--1-0.1" type="actor-car--4238973458400510012" depart="9.38" departLane="1" departPos="0.00" departSpeed="max" arrivalLane="0" arrivalPos="max">
        <route edges="E4 -E0"/>
    </vehicle>
    <vehicle id="car-flow-route-E0_0_0--E4_0_max-3409258604394150170--7266489842092764092--2-0.1" type="actor-car--4238973458400510012" depart="10.21" departLane="0" departPos="0.00" departSpeed="max" arrivalLane="0" arrivalPos="max">
        <route edges="E0 -E4"/>
    </vehicle>
    <vehicle id="car-flow-route-E4_0_0-E1_0_max-5581999185648294116--7266489842092764092--0-0.2" type="actor-car--4238973458400510012" depart="13.44" departLane="0" departPos="0.00" departSpeed="max" arrivalLane="0" arrivalPos="max">
        <route edges="E4 E1"/>
    </vehicle>
    <vehicle id="car-flow-route-E4_1_0--E0_0_max-2452033897916848868--7266489842092764092--1-0.2" type="actor-car--4238973458400510012" depart="16.91" departLane="1" departPos="0.00" departSpeed="max" arrivalLane="0" arrivalPos="max">
        <route edges="E4 -E0"/>
    </vehicle>
    <vehicle id="car-flow-route-E0_0_0--E4_0_max-3409258604394150170--7266489842092764092--2-0.2" type="actor-car--4238973458400510012" depart="18.66" departLane="0" departPos="0.00" departSpeed="max" arrivalLane="0" arrivalPos="max">
        <route edges="E0 -E4"/>
    </vehicle>
    <vehicle id="car-flow-route-E4_0_0-E1_0_max-5581999185648294116--7266489842092764092--0-0.3" type="actor-car--4238973458400510012" depart="19.78" departLane="0" departPos="0.00" departSpeed="max" arrivalLane="0" arrivalPos="max">
        <route edges="E4 E1"/>
    </vehicle>
    <vehicle id="car-flow-route-E4_1_0--E0_0_max-2452033897916848868--7266489842092764092--1-0.3" type="actor-car--4238973458400510012" depart="24.44" departLane="1" departPos="0.00" departSpeed="max" arrivalLane="0" arrivalPos="max">
        <route edges="E4 -E0"/>
    </vehicle>
    <vehicle id="car-flow-route-E4_0_0-E1_0_max-5581999185648294116--7266489842092764092--0-0.4" type="actor-car--4238973458400510012" depart="26.13" departLane="0" departPos="0.00" departSpeed="max" arrivalLane="0" arrivalPos="max">
        <route edges="E4 E1"/>
    </vehicle>
    <vehicle id="car-flow-route-E0_0_0--E4_0_max-3409258604394150170--7266489842092764092--2-0.3" type="actor-car--4238973458400510012" depart="27.12" departLane="0" departPos="0.00" departSpeed="max" arrivalLane="0" arrivalPos="max">
        <route edges="E0 -E4"/>
    </vehicle>
    <vehicle id="car-flow-route-E4_1_0--E0_0_max-2452033897916848868--7266489842092764092--1-0.4" type="actor-car--4238973458400510012" depart="31.96" departLane="1" departPos="0.00" departSpeed="max" arrivalLane="0" arrivalPos="max">
        <route edges="E4 -E0"/>
    </vehicle>
    <vehicle id="car-flow-route-E4_0_0-E1_0_max-5581999185648294116--7266489842092764092--0-0.5" type="actor-car--4238973458400510012" depart="32.48" departLane="0" departPos="0.00" departSpeed="max" arrivalLane="0" arrivalPos="max">
        <route edges="E4 E1"/>
    </vehicle>
    <vehicle id="car-flow-route-E0_0_0--E4_0_max-3409258604394150170--7266489842092764092--2-0.4" type="actor-car--4238973458400510012" depart="35.57" departLane="0" departPos="0.00" departSpeed="max" arrivalLane="0" arrivalPos="max">
        <route edges="E0 -E4"/>
    </vehicle>
    <vehicle id="car-flow-route-E4_0_0-E1_0_max-5581999185648294116--7266489842092764092--0-0.6" type="actor-car--4238973458400510012" depart="38.83" departLane="0" departPos="0.00" departSpeed="max" arrivalLane="0" arrivalPos="max">
        <route edges="E4 E1"/>
    </vehicle>
    <vehicle id="car-flow-route-E4_1_0--E0_0_max-2452033897916848868--7266489842092764092--1-0.5" type="actor-car--4238973458400510012" depart="39.49" departLane="1" departPos="0.00" departSpeed="max" arrivalLane="0" arrivalPos="max">
        <route edges="E4 -E0"/>
    </vehicle>
    <vehicle id="car-flow-route-E0_0_0--E4_0_max-3409258604394150170--7266489842092764092--2-0.5" type="actor-car--4238973458400510012" depart="44.03" departLane="0" departPos="0.00" departSpeed="max" arrivalLane="0" arrivalPos="max">
        <route edges="E0 -E4"/>
    </vehicle>
    <vehicle id="car-flow-route-E4_0_0-E1_0_max-5581999185648294116--7266489842092764092--0-0.7" type="actor-car--4238973458400510012" depart="45.18" departLane="0" departPos="0.00" departSpeed="max" arrivalLane="0" arrivalPos="max">
        <route edges="E4 E1"/>
    </vehicle>
    <vehicle id="car-flow-route-E4_1_0--E0_0_max-2452033897916848868--7266489842092764092--1-0.6" type="actor-car--4238973458400510012" depart="47.01" departLane="1" departPos="0.00" departSpeed="max" arrivalLane="0" arrivalPos="max">
        <route edges="E4 -E0"/>
    </vehicle>
    <vehicle id="car-flow-route-E4_0_0-E1_0_max-5581999185648294116--7266489842092764092--0-0.8" type="actor-car--4238973458400510012" depart="51.52" departLane="0" departPos="0.00" departSpeed="max" arrivalLane="0" arrivalPos="max">
        <route edges="E4 E1"/>
    </vehicle>
    <vehicle id="car-flow-route-E0_0_0--E4_0_max-3409258604394150170--7266489842092764092--2-0.6" type="actor-car--4238973458400510012" depart="52.48" departLane="0" departPos="0.00" departSpeed="max" arrivalLane="0" arrivalPos="max">
        <route edges="E0 -E4"/>
    </vehicle>
    <vehicle id="car-flow-route-E4_1_0--E0_0_max-2452033897916848868--7266489842092764092--1-0.7" type="actor-car--4238973458400510012" depart="54.54" departLane="1" departPos="0.00" departSpeed="max" arrivalLane="0" arrivalPos="max">
        <route edges="E4 -E0"/>
    </vehicle>
    <vehicle id="car-flow-route-E4_0_0-E1_0_max-5581999185648294116--7266489842092764092--0-0.9" type="actor-car--4238973458400510012" depart="57.87" departLane="0" departPos="0.00" departSpeed="max" arrivalLane="0" arrivalPos="max">
        <route edges="E4 E1"/>
    </vehicle>
    <vehicle id="car-flow-route-E0_0_0--E4_0_max-3409258604394150170--7266489842092764092--2-0.7" type="actor-car--4238973458400510012" depart="60.94" departLane="0" departPos="0.00" departSpeed="max" arrivalLane="0" arrivalPos="max">
        <route edges="E0 -E4"/>
    </vehicle>
    <vehicle id="car-flow-route-E4_1_0--E0_0_max-2452033897916848868--7266489842092764092--1-0.8" type="actor-car--4238973458400510012" depart="62.07" departLane="1" departPos="0.00" departSpeed="max" arrivalLane="0" arrivalPos="max">
        <route edges="E4 -E0"/>
    </vehicle>
    <vehicle id="car-flow-route-E4_0_0-E1_0_max-5581999185648294116--7266489842092764092--0-0.10" type="actor-car--4238973458400510012" depart="64.22" departLane="0" departPos="0.00" departSpeed="max" arrivalLane="0" arrivalPos="max">
        <route edges="E4 E1"/>
    </vehicle>
    <vehicle id="car-flow-route-E0_0_0--E4_0_max-3409258604394150170--7266489842092764092--2-0.8" type="actor-car--4238973458400510012" depart="69.39" departLane="0" departPos="0.00" departSpeed="max" arrivalLane="0" arrivalPos="max">
        <route edges="E0 -E4"/>
    </vehicle>
    <vehicle id="car-flow-route-E4_1_0--E0_0_max-2452033897916848868--7266489842092764092--1-0.9" type="actor-car--4238973458400510012" depart="69.59" departLane="1" departPos="0.00" departSpeed="max" arrivalLane="0" arrivalPos="max">
        <route edges="E4 -E0"/>
    </vehicle>
    <vehicle id="car-flow-route-E4_0_0-E1_0_max-5581999185648294116--7266489842092764092--0-0.11" type="actor-car--4238973458400510012" depart="70.57" departLane="0" departPos="0.00" departSpeed="max" arrivalLane="0" arrivalPos="max">
        <route edges="E4 E1"/>
    </vehicle>
    <vehicle id="car-flow-route-E4_0_0-E1_0_max-5581999185648294116--7266489842092764092--0-0.12" type="actor-car--4238973458400510012" depart="76.92" departLane="0" departPos="0.00" departSpeed="max" arrivalLane="0" arrivalPos="max">
        <route edges="E4 E1"/>
    </vehicle>
    <vehicle id="car-flow-route-E4_1_0--E0_0_max-2452033897916848868--7266489842092764092--1-0.10" type="actor-car--4238973458400510012" depart="77.12" departLane="1" departPos="0.00" departSpeed="max" arrivalLane="0" arrivalPos="max">
        <route edges="E4 -E0"/>
    </vehicle>
    <vehicle id="car-flow-route-E0_0_0--E4_0_max-3409258604394150170--7266489842092764092--2-0.9" type="actor-car--4238973458400510012" depart="77.85" departLane="0" departPos="0.00" departSpeed="max" arrivalLane="0" arrivalPos="max">
        <route edges="E0 -E4"/>
    </vehicle>
    <vehicle id="car-flow-route-E4_0_0-E1_0_max-5581999185648294116--7266489842092764092--0-0.13" type="actor-car--4238973458400510012" depart="83.26" departLane="0" departPos="0.00" departSpeed="max" arrivalLane="0" arrivalPos="max">
        <route edges="E4 E1"/>
    </vehicle>
    <vehicle id="car-flow-route-E4_1_0--E0_0_max-2452033897916848868--7266489842092764092--1-0.11" type="actor-car--4238973458400510012" depart="84.64" departLane="1" departPos="0.00" departSpeed="max" arrivalLane="0" arrivalPos="max">
        <route edges="E4 -E0"/>
    </vehicle>
    <vehicle id="car-flow-route-E0_0_0--E4_0_max-3409258604394150170--7266489842092764092--2-0.10" type="actor-car--4238973458400510012" depart="86.30" departLane="0" departPos="0.00" departSpeed="max" arrivalLane="0" arrivalPos="max">
        <route edges="E0 -E4"/>
    </vehicle>
    <vehicle id="car-flow-route-E4_0_0-E1_0_max-5581999185648294116--7266489842092764092--0-0.14" type="actor-car--4238973458400510012" depart="89.61" departLane="0" departPos="0.00" departSpeed="max" arrivalLane="0" arrivalPos="max">
        <route edges="E4 E1"/>
    </vehicle>
    <vehicle id="car-flow-route-E4_1_0--E0_0_max-2452033897916848868--7266489842092764092--1-0.12" type="actor-car--4238973458400510012" depart="92.17" departLane="1" departPos="0.00" departSpeed="max" arrivalLane="0" arrivalPos="max">
        <route edges="E4 -E0"/>
    </vehicle>
    <vehicle id="car-flow-route-E0_0_0--E4_0_max-3409258604394150170--7266489842092764092--2-0.11" type="actor-car--4238973458400510012" depart="94.76" departLane="0" departPos="0.00" departSpeed="max" arrivalLane="0" arrivalPos="max">
        <route edges="E0 -E4"/>
    </vehicle>
    <vehicle id="car-flow-route-E4_0_0-E1_0_max-5581999185648294116--7266489842092764092--0-0.15" type="actor-car--4238973458400510012" depart="95.96" departLane="0" departPos="0.00" departSpeed="max" arrivalLane="0" arrivalPos="max">
        <route edges="E4 E1"/>
    </vehicle>
    <vehicle id="car-flow-route-E4_1_0--E0_0_max-2452033897916848868--7266489842092764092--1-0.13" type="actor-car--4238973458400510012" depart="99.70" departLane="1" departPos="0.00" departSpeed="max" arrivalLane="0" arrivalPos="max">
        <route edges="E4 -E0"/>
    </vehicle>
    <vehicle id="car-flow-route-E4_0_0-E1_0_max-5581999185648294116--7266489842092764092--0-0.16" type="actor-car--4238973458400510012" depart="102.31" departLane="0" departPos="0.00" departSpeed="max" arrivalLane="0" arrivalPos="max">
        <route edges="E4 E1"/>
    </vehicle>
    <vehicle id="car-flow-route-E0_0_0--E4_0_max-3409258604394150170--7266489842092764092--2-0.12" type="actor-car--4238973458400510012" depart="103.21" departLane="0" departPos="0.00" departSpeed="max" arrivalLane="0" arrivalPos="max">
        <route edges="E0 -E4"/>
    </vehicle>
    <vehicle id="car-flow-route-E4_1_0--E0_0_max-2452033897916848868--7266489842092764092--1-0.14" type="actor-car--4238973458400510012" depart="107.22" departLane="1" departPos="0.00" departSpeed="max" arrivalLane="0" arrivalPos="max">
        <route edges="E4 -E0"/>
    </vehicle>
    <vehicle id="car-flow-route-E4_0_0-E1_0_max-5581999185648294116--7266489842092764092--0-0.17" type="actor-car--4238973458400510012" depart="108.66" departLane="0" departPos="0.00" departSpeed="max" arrivalLane="0" arrivalPos="max">
        <route edges="E4 E1"/>
    </vehicle>
    <vehicle id="car-flow-route-E0_0_0--E4_0_max-3409258604394150170--7266489842092764092--2-0.13" type="actor-car--4238973458400510012" depart="111.67" departLane="0" departPos="0.00" departSpeed="max" arrivalLane="0" arrivalPos="max">
        <route edges="E0 -E4"/>
    </vehicle>
    <vehicle id="car-flow-route-E4_1_0--E0_0_max-2452033897916848868--7266489842092764092--1-0.15" type="actor-car--4238973458400510012" depart="114.75" departLane="1" departPos="0.00" departSpeed="max" arrivalLane="0" arrivalPos="max">
        <route edges="E4 -E0"/>
    </vehicle>
    <vehicle id="car-flow-route-E4_0_0-E1_0_max-5581999185648294116--7266489842092764092--0-0.18" type="actor-car--4238973458400510012" depart="115.00" departLane="0" departPos="0.00" departSpeed="max" arrivalLane="0" arrivalPos="max">
        <route edges="E4 E1"/>
    </vehicle>
    <vehicle id="car-flow-route-E0_0_0--E4_0_max-3409258604394150170--7266489842092764092--2-0.14" type="actor-car--4238973458400510012" depart="120.12" departLane="0" departPos="0.00" departSpeed="max" arrivalLane="0" arrivalPos="max">
        <route edges="E0 -E4"/>
    </vehicle>
    <vehicle id="car-flow-route-E4_0_0-E1_0_max-5581999185648294116--7266489842092764092--0-0.19" type="actor-car--4238973458400510012" depart="121.35" departLane="0" departPos="0.00" departSpeed="max" arrivalLane="0" arrivalPos="max">
        <route edges="E4 E1"/>
    </vehicle>
    <vehicle id="car-flow-route-E4_1_0--E0_0_max-2452033897916848868--7266489842092764092--1-0.16" type="actor-car--4238973458400510012" depart="122.27" departLane="1" departPos="0.00" departSpeed="max" arrivalLane="0" arrivalPos="max">
        <route edges="E4 -E0"/>
    </vehicle>
    <vehicle id="car-flow-route-E4_0_0-E1_0_max-5581999185648294116--7266489842092764092--0-0.20" type="actor-car--4238973458400510012" depart="127.70" departLane="0" departPos="0.00" departSpeed="max" arrivalLane="0" arrivalPos="max">
        <route edges="E4 E1"/>
    </vehicle>
    <vehicle id="car-flow-route-E0_0_0--E4_0_max-3409258604394150170--7266489842092764092--2-0.15" type="actor-car--4238973458400510012" depart="128.58" departLane="0" departPos="0.00" departSpeed="max" arrivalLane="0" arrivalPos="max">
        <route edges="E0 -E4"/>
    </vehicle>
    <vehicle id="car-flow-route-E4_1_0--E0_0_max-2452033897916848868--7266489842092764092--1-0.17" type="actor-car--4238973458400510012" depart="129.80" departLane="1" departPos="0.00" departSpeed="max" arrivalLane="0" arrivalPos="max">
        <route edges="E4 -E0"/>
    </vehicle>
    <vehicle id="car-flow-route-E4_0_0-E1_0_max-5581999185648294116--7266489842092764092--0-0.21" type="actor-car--4238973458400510012" depart="134.05" departLane="0" departPos="0.00" departSpeed="max" arrivalLane="0" arrivalPos="max">
        <route edges="E4 E1"/>
    </vehicle>
    <vehicle id="car-flow-route-E0_0_0--E4_0_max-3409258604394150170--7266489842092764092--2-0.16" type="actor-car--4238973458400510012" depart="137.03" departLane="0" departPos="0.00" departSpeed="max" arrivalLane="0" arrivalPos="max">
        <route edges="E0 -E4"/>
    </vehicle>
    <vehicle id="car-flow-route-E4_1_0--E0_0_max-2452033897916848868--7266489842092764092--1-0.18" type="actor-car--4238973458400510012" depart="137.33" departLane="1" departPos="0.00" departSpeed="max" arrivalLane="0" arrivalPos="max">
        <route edges="E4 -E0"/>
    </vehicle>
    <vehicle id="car-flow-route-E4_0_0-E1_0_max-5581999185648294116--7266489842092764092--0-0.22" type="actor-car--4238973458400510012" depart="140.40" departLane="0" departPos="0.00" departSpeed="max" arrivalLane="0" arrivalPos="max">
        <route edges="E4 E1"/>
    </vehicle>
    <vehicle id="car-flow-route-E4_1_0--E0_0_max-2452033897916848868--7266489842092764092--1-0.19" type="actor-car--4238973458400510012" depart="144.85" departLane="1" departPos="0.00" departSpeed="max" arrivalLane="0" arrivalPos="max">
        <route edges="E4 -E0"/>
    </vehicle>
    <vehicle id="car-flow-route-E0_0_0--E4_0_max-3409258604394150170--7266489842092764092--2-0.17" type="actor-car--4238973458400510012" depart="145.49" departLane="0" departPos="0.00" departSpeed="max" arrivalLane="0" arrivalPos="max">
        <route edges="E0 -E4"/>
    </vehicle>
    <vehicle id="car-flow-route-E4_0_0-E1_0_max-5581999185648294116--7266489842092764092--0-0.23" type="actor-car--4238973458400510012" depart="146.74" departLane="0" departPos="0.00" departSpeed="max" arrivalLane="0" arrivalPos="max">
        <route edges="E4 E1"/>
    </vehicle>
    <vehicle id="car-flow-route-E4_1_0--E0_0_max-2452033897916848868--7266489842092764092--1-0.20" type="actor-car--4238973458400510012" depart="152.38" departLane="1" departPos="0.00" departSpeed="max" arrivalLane="0" arrivalPos="max">
        <route edges="E4 -E0"/>
    </vehicle>
    <vehicle id="car-flow-route-E4_0_0-E1_0_max-5581999185648294116--7266489842092764092--0-0.24" type="actor-car--4238973458400510012" depart="153.09" departLane="0" departPos="0.00" departSpeed="max" arrivalLane="0" arrivalPos="max">
        <route edges="E4 E1"/>
    </vehicle>
    <vehicle id="car-flow-route-E0_0_0--E4_0_max-3409258604394150170--7266489842092764092--2-0.18" type="actor-car--4238973458400510012" depart="153.94" departLane="0" departPos="0.00" departSpeed="max" arrivalLane="0" arrivalPos="max">
        <route edges="E0 -E4"/>
    </vehicle>
    <vehicle id="car-flow-route-E4_0_0-E1_0_max-5581999185648294116--7266489842092764092--0-0.25" type="actor-car--4238973458400510012" depart="159.44" departLane="0" departPos="0.00" departSpeed="max" arrivalLane="0" arrivalPos="max">
        <route edges="E4 E1"/>
    </vehicle>
    <vehicle id="car-flow-route-E4_1_0--E0_0_max-2452033897916848868--7266489842092764092--1-0.21" type="actor-car--4238973458400510012" depart="159.90" departLane="1" departPos="0.00" departSpeed="max" arrivalLane="0" arrivalPos="max">
        <route edges="E4 -E0"/>
    </vehicle>
    <vehicle id="car-flow-route-E0_0_0--E4_0_max-3409258604394150170--7266489842092764092--2-0.19" type="actor-car--4238973458400510012" depart="162.40" departLane="0" departPos="0.00" departSpeed="max" arrivalLane="0" arrivalPos="max">
        <route edges="E0 -E4"/>
    </vehicle>
    <vehicle id="car-flow-route-E4_0_0-E1_0_max-5581999185648294116--7266489842092764092--0-0.26" type="actor-car--4238973458400510012" depart="165.79" departLane="0" departPos="0.00" departSpeed="max" arrivalLane="0" arrivalPos="max">
        <route edges="E4 E1"/>
    </vehicle>
    <vehicle id="car-flow-route-E4_1_0--E0_0_max-2452033897916848868--7266489842092764092--1-0.22" type="actor-car--4238973458400510012" depart="167.43" departLane="1" departPos="0.00" departSpeed="max" arrivalLane="0" arrivalPos="max">
        <route edges="E4 -E0"/>
    </vehicle>
    <vehicle id="car-flow-route-E0_0_0--E4_0_max-3409258604394150170--7266489842092764092--2-0.20" type="actor-car--4238973458400510012" depart="170.85" departLane="0" departPos="0.00" departSpeed="max" arrivalLane="0" arrivalPos="max">
        <route edges="E0 -E4"/>
    </vehicle>
    <vehicle id="car-flow-route-E4_0_0-E1_0_max-5581999185648294116--7266489842092764092--0-0.27" type="actor-car--4238973458400510012" depart="172.14" departLane="0" departPos="0.00" departSpeed="max" arrivalLane="0" arrivalPos="max">
        <route edges="E4 E1"/>
    </vehicle>
    <vehicle id="car-flow-route-E4_1_0--E0_0_max-2452033897916848868--7266489842092764092--1-0.23" type="actor-car--4238973458400510012" depart="174.96" departLane="1" departPos="0.00" departSpeed="max" arrivalLane="0" arrivalPos="max">
        <route edges="E4 -E0"/>
    </vehicle>
    <vehicle id="car-flow-route-E4_0_0-E1_0_max-5581999185648294116--7266489842092764092--0-0.28" type="actor-car--4238973458400510012" depart="178.48" departLane="0" departPos="0.00" departSpeed="max" arrivalLane="0" arrivalPos="max">
        <route edges="E4 E1"/>
    </vehicle>
    <vehicle id="car-flow-route-E0_0_0--E4_0_max-3409258604394150170--7266489842092764092--2-0.21" type="actor-car--4238973458400510012" depart="179.31" departLane="0" departPos="0.00" departSpeed="max" arrivalLane="0" arrivalPos="max">
        <route edges="E0 -E4"/>
    </vehicle>
    <vehicle id="car-flow-route-E4_1_0--E0_0_max-2452033897916848868--7266489842092764092--1-0.24" type="actor-car--4238973458400510012" depart="182.48" departLane="1" departPos="0.00" departSpeed="max" arrivalLane="0" arrivalPos="max">
        <route edges="E4 -E0"/>
    </vehicle>
    <vehicle id="car-flow-route-E4_0_0-E1_0_max-5581999185648294116--7266489842092764092--0-0.29" type="actor-car--4238973458400510012" depart="184.83" departLane="0" departPos="0.00" departSpeed="max" arrivalLane="0" arrivalPos="max">
        <route edges="E4 E1"/>
    </vehicle>
    <vehicle id="car-flow-route-E0_0_0--E4_0_max-3409258604394150170--7266489842092764092--2-0.22" type="actor-car--4238973458400510012" depart="187.76" departLane="0" departPos="0.00" departSpeed="max" arrivalLane="0" arrivalPos="max">
        <route edges="E0 -E4"/>
    </vehicle>
    <vehicle id="car-flow-route-E4_1_0--E0_0_max-2452033897916848868--7266489842092764092--1-0.25" type="actor-car--4238973458400510012" depart="190.01" departLane="1" departPos="0.00" departSpeed="max" arrivalLane="0" arrivalPos="max">
        <route edges="E4 -E0"/>
    </vehicle>
    <vehicle id="car-flow-route-E4_0_0-E1_0_max-5581999185648294116--7266489842092764092--0-0.30" type="actor-car--4238973458400510012" depart="191.18" departLane="0" departPos="0.00" departSpeed="max" arrivalLane="0" arrivalPos="max">
        <route edges="E4 E1"/>
    </vehicle>
    <vehicle id="car-flow-route-E0_0_0--E4_0_max-3409258604394150170--7266489842092764092--2-0.23" type="actor-car--4238973458400510012" depart="196.22" departLane="0" departPos="0.00" departSpeed="max" arrivalLane="0" arrivalPos="max">
        <route edges="E0 -E4"/>
    </vehicle>
    <vehicle id="car-flow-route-E4_0_0-E1_0_max-5581999185648294116--7266489842092764092--0-0.31" type="actor-car--4238973458400510012" depart="197.53" departLane="0" departPos="0.00" departSpeed="max" arrivalLane="0" arrivalPos="max">
        <route edges="E4 E1"/>
    </vehicle>
    <vehicle id="car-flow-route-E4_1_0--E0_0_max-2452033897916848868--7266489842092764092--1-0.26" type="actor-car--4238973458400510012" depart="197.53" departLane="1" departPos="0.00" departSpeed="max" arrivalLane="0" arrivalPos="max">
        <route edges="E4 -E0"/>
    </vehicle>
    <vehicle id="car-flow-route-E4_0_0-E1_0_max-5581999185648294116--7266489842092764092--0-0.32" type="actor-car--4238973458400510012" depart="203.88" departLane="0" departPos="0.00" departSpeed="max" arrivalLane="0" arrivalPos="max">
        <route edges="E4 E1"/>
    </vehicle>
    <vehicle id="car-flow-route-E0_0_0--E4_0_max-3409258604394150170--7266489842092764092--2-0.24" type="actor-car--4238973458400510012" depart="204.67" departLane="0" departPos="0.00" departSpeed="max" arrivalLane="0" arrivalPos="max">
        <route edges="E0 -E4"/>
    </vehicle>
    <vehicle id="car-flow-route-E4_1_0--E0_0_max-2452033897916848868--7266489842092764092--1-0.27" type="actor-car--4238973458400510012" depart="205.06" departLane="1" departPos="0.00" departSpeed="max" arrivalLane="0" arrivalPos="max">
        <route edges="E4 -E0"/>
    </vehicle>
    <vehicle id="car-flow-route-E4_0_0-E1_0_max-5581999185648294116--7266489842092764092--0-0.33" type="actor-car--4238973458400510012" depart="210.22" departLane="0" departPos="0.00" departSpeed="max" arrivalLane="0" arrivalPos="max">
        <route edges="E4 E1"/>
    </vehicle>
    <vehicle id="car-flow-route-E4_1_0--E0_0_max-2452033897916848868--7266489842092764092--1-0.28" type="actor-car--4238973458400510012" depart="212.59" departLane="1" departPos="0.00" departSpeed="max" arrivalLane="0" arrivalPos="max">
        <route edges="E4 -E0"/>
    </vehicle>
    <vehicle id="car-flow-route-E0_0_0--E4_0_max-3409258604394150170--7266489842092764092--2-0.25" type="actor-car--4238973458400510012" depart="213.13" departLane="0" departPos="0.00" departSpeed="max" arrivalLane="0" arrivalPos="max">
        <route edges="E0 -E4"/>
    </vehicle>
    <vehicle id="car-flow-route-E4_0_0-E1_0_max-5581999185648294116--7266489842092764092--0-0.34" type="actor-car--4238973458400510012" depart="216.57" departLane="0" departPos="0.00" departSpeed="max" arrivalLane="0" arrivalPos="max">
        <route edges="E4 E1"/>
    </vehicle>
    <vehicle id="car-flow-route-E4_1_0--E0_0_max-2452033897916848868--7266489842092764092--1-0.29" type="actor-car--4238973458400510012" depart="220.11" departLane="1" departPos="0.00" departSpeed="max" arrivalLane="0" arrivalPos="max">
        <route edges="E4 -E0"/>
    </vehicle>
    <vehicle id="car-flow-route-E0_0_0--E4_0_max-3409258604394150170--7266489842092764092--2-0.26" type="actor-car--4238973458400510012" depart="221.58" departLane="0" departPos="0.00" departSpeed="max" arrivalLane="0" arrivalPos="max">
        <route edges="E0 -E4"/>
    </vehicle>
    <vehicle id="car-flow-route-E4_0_0-E1_0_max-5581999185648294116--7266489842092764092--0-0.35" type="actor-car--4238973458400510012" depart="222.92" departLane="0" departPos="0.00" departSpeed="max" arrivalLane="0" arrivalPos="max">
        <route edges="E4 E1"/>
    </vehicle>
    <vehicle id="car-flow-route-E4_1_0--E0_0_max-2452033897916848868--7266489842092764092--1-0.30" type="actor-car--4238973458400510012" depart="227.64" departLane="1" departPos="0.00" departSpeed="max" arrivalLane="0" arrivalPos="max">
        <route edges="E4 -E0"/>
    </vehicle>
    <vehicle id="car-flow-route-E4_0_0-E1_0_max-5581999185648294116--7266489842092764092--0-0.36" type="actor-car--4238973458400510012" depart="229.27" departLane="0" departPos="0.00" departSpeed="max" arrivalLane="0" arrivalPos="max">
        <route edges="E4 E1"/>
    </vehicle>
    <vehicle id="car-flow-route-E0_0_0--E4_0_max-3409258604394150170--7266489842092764092--2-0.27" type="actor-car--4238973458400510012" depart="230.04" departLane="0" departPos="0.00" departSpeed="max" arrivalLane="0" arrivalPos="max">
        <route edges="E0 -E4"/>
    </vehicle>
    <vehicle id="car-flow-route-E4_1_0--E0_0_max-2452033897916848868--7266489842092764092--1-0.31" type="actor-car--4238973458400510012" depart="235.16" departLane="1" departPos="0.00" departSpeed="max" arrivalLane="0" arrivalPos="max">
        <route edges="E4 -E0"/>
    </vehicle>
    <vehicle id="car-flow-route-E4_0_0-E1_0_max-5581999185648294116--7266489842092764092--0-0.37" type="actor-car--4238973458400510012" depart="235.62" departLane="0" departPos="0.00" departSpeed="max" arrivalLane="0" arrivalPos="max">
        <route edges="E4 E1"/>
    </vehicle>
    <vehicle id="car-flow-route-E0_0_0--E4_0_max-3409258604394150170--7266489842092764092--2-0.28" type="actor-car--4238973458400510012" depart="238.49" departLane="0" departPos="0.00" departSpeed="max" arrivalLane="0" arrivalPos="max">
        <route edges="E0 -E4"/>
    </vehicle>
    <vehicle id="car-flow-route-E4_0_0-E1_0_max-5581999185648294116--7266489842092764092--0-0.38" type="actor-car--4238973458400510012" depart="241.96" departLane="0" departPos="0.00" departSpeed="max" arrivalLane="0" arrivalPos="max">
        <route edges="E4 E1"/>
    </vehicle>
    <vehicle id="car-flow-route-E4_1_0--E0_0_max-2452033897916848868--7266489842092764092--1-0.32" type="actor-car--4238973458400510012" depart="242.69" departLane="1" departPos="0.00" departSpeed="max" arrivalLane="0" arrivalPos="max">
        <route edges="E4 -E0"/>
    </vehicle>