<?xml version="1.0" encoding="UTF-8"?>

<!-- generated on 2023-05-28 21:07:34 by Eclipse SUMO duarouter Version 1.16.0
<configuration xmlns:xsi="http://www.w3.org/2001/XMLSchema-instance" xsi:noNamespaceSchemaLocation="http://sumo.dlr.de/xsd/duarouterConfiguration.xsd">

    <input>
        <net-file value="/home/smarts/scenarios/sumo/intersections/1_to_2lane_left_turn_t_agents_1/map.net.xml"/>
        <route-files value="/tmp/tmpj_zyieli/trips.trips.xml"/>
    </input>

    <output>
        <output-file value="/home/smarts/scenarios/sumo/intersections/1_to_2lane_left_turn_t_agents_1/build/traffic/67.rou.xml"/>
    </output>

    <processing>
        <unsorted-input value="true"/>
        <repair value="true"/>
    </processing>

    <report>
        <error-log value="/root/.smarts/_duarouter_routing/traffic/67.log"/>
        <no-step-log value="true"/>
    </report>

    <random_number>
        <seed value="42"/>
    </random_number>

</configuration>
-->

<routes xmlns:xsi="http://www.w3.org/2001/XMLSchema-instance" xsi:noNamespaceSchemaLocation="http://sumo.dlr.de/xsd/routes_file.xsd">
    <vType id="actor-car--4238973458400510012" minGap="2.50" maxSpeed="55.50" speedFactor="normc(1.00,0.10,0.20,2.00)" vClass="passenger" accel="2.6" decel="4.5" sigma="0.5"/>
    <vehicle id="car-flow-route-E0_0_0-E1_1_max-6371496855813406146--7266489842092764092--1-0.0" type="actor-car--4238973458400510012" depart="1.86" departLane="0" departPos="0.00" departSpeed="max" arrivalLane="1" arrivalPos="max">
        <route edges="E0 E1"/>
    </vehicle>
    <vehicle id="car-flow-route-E4_1_0-E1_1_max--2352894271058968195--7266489842092764092--0-0.0" type="actor-car--4238973458400510012" depart="2.65" departLane="1" departPos="0.00" departSpeed="max" arrivalLane="1" arrivalPos="max">
        <route edges="E4 E1"/>
    </vehicle>
    <vehicle id="car-flow-route-E0_0_0--E4_0_max-3409258604394150170--7266489842092764092--2-0.0" type="actor-car--4238973458400510012" depart="2.79" departLane="0" departPos="0.00" departSpeed="max" arrivalLane="0" arrivalPos="max">
        <route edges="E0 -E4"/>
    </vehicle>
    <vehicle id="car-flow-route-E4_1_0-E1_1_max--2352894271058968195--7266489842092764092--0-0.1" type="actor-car--4238973458400510012" depart="9.39" departLane="1" departPos="0.00" departSpeed="max" arrivalLane="1" arrivalPos="max">
        <route edges="E4 E1"/>
    </vehicle>
    <vehicle id="car-flow-route-E0_0_0-E1_1_max-6371496855813406146--7266489842092764092--1-0.1" type="actor-car--4238973458400510012" depart="10.40" departLane="0" departPos="0.00" departSpeed="max" arrivalLane="1" arrivalPos="max">
        <route edges="E0 E1"/>
    </vehicle>
    <vehicle id="car-flow-route-E0_0_0--E4_0_max-3409258604394150170--7266489842092764092--2-0.1" type="actor-car--4238973458400510012" depart="13.18" departLane="0" departPos="0.00" departSpeed="max" arrivalLane="0" arrivalPos="max">
        <route edges="E0 -E4"/>
    </vehicle>
    <vehicle id="car-flow-route-E4_1_0-E1_1_max--2352894271058968195--7266489842092764092--0-0.2" type="actor-car--4238973458400510012" depart="16.13" departLane="1" departPos="0.00" departSpeed="max" arrivalLane="1" arrivalPos="max">
        <route edges="E4 E1"/>
    </vehicle>
    <vehicle id="car-flow-route-E0_0_0-E1_1_max-6371496855813406146--7266489842092764092--1-0.2" type="actor-car--4238973458400510012" depart="18.93" departLane="0" departPos="0.00" departSpeed="max" arrivalLane="1" arrivalPos="max">
        <route edges="E0 E1"/>
    </vehicle>
    <vehicle id="car-flow-route-E4_1_0-E1_1_max--2352894271058968195--7266489842092764092--0-0.3" type="actor-car--4238973458400510012" depart="22.88" departLane="1" departPos="0.00" departSpeed="max" arrivalLane="1" arrivalPos="max">
        <route edges="E4 E1"/>
    </vehicle>
    <vehicle id="car-flow-route-E0_0_0--E4_0_max-3409258604394150170--7266489842092764092--2-0.2" type="actor-car--4238973458400510012" depart="23.58" departLane="0" departPos="0.00" departSpeed="max" arrivalLane="0" arrivalPos="max">
        <route edges="E0 -E4"/>
    </vehicle>
    <vehicle id="car-flow-route-E0_0_0-E1_1_max-6371496855813406146--7266489842092764092--1-0.3" type="actor-car--4238973458400510012" depart="27.46" departLane="0" departPos="0.00" departSpeed="max" arrivalLane="1" arrivalPos="max">
        <route edges="E0 E1"/>
    </vehicle>
    <vehicle id="car-flow-route-E4_1_0-E1_1_max--2352894271058968195--7266489842092764092--0-0.4" type="actor-car--4238973458400510012" depart="29.62" departLane="1" departPos="0.00" departSpeed="max" arrivalLane="1" arrivalPos="max">
        <route edges="E4 E1"/>
    </vehicle>
    <vehicle id="car-flow-route-E0_0_0--E4_0_max-3409258604394150170--7266489842092764092--2-0.3" type="actor-car--4238973458400510012" depart="33.97" departLane="0" departPos="0.00" departSpeed="max" arrivalLane="0" arrivalPos="max">
        <route edges="E0 -E4"/>
    </vehicle>
    <vehicle id="car-flow-route-E0_0_0-E1_1_max-6371496855813406146--7266489842092764092--1-0.4" type="actor-car--4238973458400510012" depart="35.99" departLane="0" departPos="0.00" departSpeed="max" arrivalLane="1" arrivalPos="max">
        <route edges="E0 E1"/>
    </vehicle>
    <vehicle id="car-flow-route-E4_1_0-E1_1_max--2352894271058968195--7266489842092764092--0-0.5" type="actor-car--4238973458400510012" depart="36.36" departLane="1" departPos="0.00" departSpeed="max" arrivalLane="1" arrivalPos="max">
        <route edges="E4 E1"/>
    </vehicle>
    <vehicle id="car-flow-route-E4_1_0-E1_1_max--2352894271058968195--7266489842092764092--0-0.6" type="actor-car--4238973458400510012" depart="43.10" departLane="1" departPos="0.00" departSpeed="max" arrivalLane="1" arrivalPos="max">
        <route edges="E4 E1"/>
    </vehicle>
    <vehicle id="car-flow-route-E0_0_0--E4_0_max-3409258604394150170--7266489842092764092--2-0.4" type="actor-car--4238973458400510012" depart="44.37" departLane="0" departPos="0.00" departSpeed="max" arrivalLane="0" arrivalPos="max">
        <route edges="E0 -E4"/>
    </vehicle>
    <vehicle id="car-flow-route-E0_0_0-E1_1_max-6371496855813406146--7266489842092764092--1-0.5" type="actor-car--4238973458400510012" depart="44.53" departLane="0" departPos="0.00" departSpeed="max" arrivalLane="1" arrivalPos="max">
        <route edges="E0 E1"/>
    </vehicle>
    <vehicle id="car-flow-route-E4_1_0-E1_1_max--2352894271058968195--7266489842092764092--0-0.7" type="actor-car--4238973458400510012" depart="49.84" departLane="1" departPos="0.00" departSpeed="max" arrivalLane="1" arrivalPos="max">
        <route edges="E4 E1"/>
    </vehicle>
    <vehicle id="car-flow-route-E0_0_0-E1_1_max-6371496855813406146--7266489842092764092--1-0.6" type="actor-car--4238973458400510012" depart="53.06" departLane="0" departPos="0.00" departSpeed="max" arrivalLane="1" arrivalPos="max">
        <route edges="E0 E1"/>
    </vehicle>
    <vehicle id="car-flow-route-E0_0_0--E4_0_max-3409258604394150170--7266489842092764092--2-0.5" type="actor-car--4238973458400510012" depart="54.76" departLane="0" departPos="0.00" departSpeed="max" arrivalLane="0" arrivalPos="max">
        <route edges="E0 -E4"/>
    </vehicle>
    <vehicle id="car-flow-route-E4_1_0-E1_1_max--2352894271058968195--7266489842092764092--0-0.8" type="actor-car--4238973458400510012" depart="56.58" departLane="1" departPos="0.00" departSpeed="max" arrivalLane="1" arrivalPos="max">
        <route edges="E4 E1"/>
    </vehicle>
    <vehicle id="car-flow-route-E0_0_0-E1_1_max-6371496855813406146--7266489842092764092--1-0.7" type="actor-car--4238973458400510012" depart="61.59" departLane="0" departPos="0.00" departSpeed="max" arrivalLane="1" arrivalPos="max">
        <route edges="E0 E1"/>
    </vehicle>
    <vehicle id="car-flow-route-E4_1_0-E1_1_max--2352894271058968195--7266489842092764092--0-0.9" type="actor-car--4238973458400510012" depart="63.32" departLane="1" departPos="0.00" departSpeed="max" arrivalLane="1" arrivalPos="max">
        <route edges="E4 E1"/>
    </vehicle>
    <vehicle id="car-flow-route-E0_0_0--E4_0_max-3409258604394150170--7266489842092764092--2-0.6" type="actor-car--4238973458400510012" depart="65.15" departLane="0" departPos="0.00" departSpeed="max" arrivalLane="0" arrivalPos="max">
        <route edges="E0 -E4"/>
    </vehicle>
    <vehicle id="car-flow-route-E4_1_0-E1_1_max--2352894271058968195--7266489842092764092--0-0.10" type="actor-car--4238973458400510012" depart="70.06" departLane="1" departPos="0.00" departSpeed="max" arrivalLane="1" arrivalPos="max">
        <route edges="E4 E1"/>
    </vehicle>
    <vehicle id="car-flow-route-E0_0_0-E1_1_max-6371496855813406146--7266489842092764092--1-0.8" type="actor-car--4238973458400510012" depart="70.13" departLane="0" departPos="0.00" departSpeed="max" arrivalLane="1" arrivalPos="max">
        <route edges="E0 E1"/>
    </vehicle>
    <vehicle id="car-flow-route-E0_0_0--E4_0_max-3409258604394150170--7266489842092764092--2-0.7" type="actor-car--4238973458400510012" depart="75.55" departLane="0" departPos="0.00" departSpeed="max" arrivalLane="0" arrivalPos="max">
        <route edges="E0 -E4"/>
    </vehicle>
    <vehicle id="car-flow-route-E4_1_0-E1_1_max--2352894271058968195--7266489842092764092--0-0.11" type="actor-car--4238973458400510012" depart="76.80" departLane="1" departPos="0.00" departSpeed="max" arrivalLane="1" arrivalPos="max">
        <route edges="E4 E1"/>
    </vehicle>
    <vehicle id="car-flow-route-E0_0_0-E1_1_max-6371496855813406146--7266489842092764092--1-0.9" type="actor-car--4238973458400510012" depart="78.66" departLane="0" departPos="0.00" departSpeed="max" arrivalLane="1" arrivalPos="max">
        <route edges="E0 E1"/>
    </vehicle>
    <vehicle id="car-flow-route-E4_1_0-E1_1_max--2352894271058968195--7266489842092764092--0-0.12" type="actor-car--4238973458400510012" depart="83.54" departLane="1" departPos="0.00" departSpeed="max" arrivalLane="1" arrivalPos="max">
        <route edges="E4 E1"/>
    </vehicle>
    <vehicle id="car-flow-route-E0_0_0--E4_0_max-3409258604394150170--7266489842092764092--2-0.8" type="actor-car--4238973458400510012" depart="85.94" departLane="0" departPos="0.00" departSpeed="max" arrivalLane="0" arrivalPos="max">
        <route edges="E0 -E4"/>
    </vehicle>
    <vehicle id="car-flow-route-E0_0_0-E1_1_max-6371496855813406146--7266489842092764092--1-0.10" type="actor-car--4238973458400510012" depart="87.19" departLane="0" departPos="0.00" departSpeed="max" arrivalLane="1" arrivalPos="max">
        <route edges="E0 E1"/>
    </vehicle>
    <vehicle id="car-flow-route-E4_1_0-E1_1_max--2352894271058968195--7266489842092764092--0-0.13" type="actor-car--4238973458400510012" depart="90.29" departLane="1" departPos="0.00" departSpeed="max" arrivalLane="1" arrivalPos="max">
        <route edges="E4 E1"/>
    </vehicle>
    <vehicle id="car-flow-route-E0_0_0-E1_1_max-6371496855813406146--7266489842092764092--1-0.11" type="actor-car--4238973458400510012" depart="95.73" departLane="0" departPos="0.00" departSpeed="max" arrivalLane="1" arrivalPos="max">
        <route edges="E0 E1"/>
    </vehicle>
    <vehicle id="car-flow-route-E0_0_0--E4_0_max-3409258604394150170--7266489842092764092--2-0.9" type="actor-car--4238973458400510012" depart="96.34" departLane="0" departPos="0.00" departSpeed="max" arrivalLane="0" arrivalPos="max">
        <route edges="E0 -E4"/>
    </vehicle>
    <vehicle id="car-flow-route-E4_1_0-E1_1_max--2352894271058968195--7266489842092764092--0-0.14" type="actor-car--4238973458400510012" depart="97.03" departLane="1" departPos="0.00" departSpeed="max" arrivalLane="1" arrivalPos="max">
        <route edges="E4 E1"/>
    </vehicle>
    <vehicle id="car-flow-route-E4_1_0-E1_1_max--2352894271058968195--7266489842092764092--0-0.15" type="actor-car--4238973458400510012" depart="103.77" departLane="1" departPos="0.00" departSpeed="max" arrivalLane="1" arrivalPos="max">
        <route edges="E4 E1"/>
    </vehicle>
    <vehicle id="car-flow-route-E0_0_0-E1_1_max-6371496855813406146--7266489842092764092--1-0.12" type="actor-car--4238973458400510012" depart="104.26" departLane="0" departPos="0.00" departSpeed="max" arrivalLane="1" arrivalPos="max">
        <route edges="E0 E1"/>
    </vehicle>
    <vehicle id="car-flow-route-E0_0_0--E4_0_max-3409258604394150170--7266489842092764092--2-0.10" type="actor-car--4238973458400510012" depart="106.73" departLane="0" departPos="0.00" departSpeed="max" arrivalLane="0" arrivalPos="max">
        <route edges="E0 -E4"/>
    </vehicle>
    <vehicle id="car-flow-route-E4_1_0-E1_1_max--2352894271058968195--7266489842092764092--0-0.16" type="actor-car--4238973458400510012" depart="110.51" departLane="1" departPos="0.00" departSpeed="max" arrivalLane="1" arrivalPos="max">
        <route edges="E4 E1"/>
    </vehicle>
    <vehicle id="car-flow-route-E0_0_0-E1_1_max-6371496855813406146--7266489842092764092--1-0.13" type="actor-car--4238973458400510012" depart="112.79" departLane="0" departPos="0.00" departSpeed="max" arrivalLane="1" arrivalPos="max">
        <route edges="E0 E1"/>
    </vehicle>
    <vehicle id="car-flow-route-E0_0_0--E4_0_max-3409258604394150170--7266489842092764092--2-0.11" type="actor-car--4238973458400510012" depart="117.12" departLane="0" departPos="0.00" departSpeed="max" arrivalLane="0" arrivalPos="max">
        <route edges="E0 -E4"/>
    </vehicle>
    <vehicle id="car-flow-route-E4_1_0-E1_1_max--2352894271058968195--7266489842092764092--0-0.17" type="actor-car--4238973458400510012" depart="117.25" departLane="1" departPos="0.00" departSpeed="max" arrivalLane="1" arrivalPos="max">
        <route edges="E4 E1"/>
    </vehicle>
    <vehicle id="car-flow-route-E0_0_0-E1_1_max-6371496855813406146--7266489842092764092--1-0.14" type="actor-car--4238973458400510012" depart="121.32" departLane="0" departPos="0.00" departSpeed="max" arrivalLane="1" arrivalPos="max">
        <route edges="E0 E1"/>
    </vehicle>
    <vehicle id="car-flow-route-E4_1_0-E1_1_max--2352894271058968195--7266489842092764092--0-0.18" type="actor-car--4238973458400510012" depart="123.99" departLane="1" departPos="0.00" departSpeed="max" arrivalLane="1" arrivalPos="max">
        <route edges="E4 E1"/>
    </vehicle>
    <vehicle id="car-flow-route-E0_0_0--E4_0_max-3409258604394150170--7266489842092764092--2-0.12" type="actor-car--4238973458400510012" depart="127.52" departLane="0" departPos="0.00" departSpeed="max" arrivalLane="0" arrivalPos="max">
        <route edges="E0 -E4"/>
    </vehicle>
    <vehicle id="car-flow-route-E0_0_0-E1_1_max-6371496855813406146--7266489842092764092--1-0.15" type="actor-car--4238973458400510012" depart="129.86" departLane="0" departPos="0.00" departSpeed="max" arrivalLane="1" arrivalPos="max">
        <route edges="E0 E1"/>
    </vehicle>
    <vehicle id="car-flow-route-E4_1_0-E1_1_max--2352894271058968195--7266489842092764092--0-0.19" type="actor-car--4238973458400510012" depart="130.73" departLane="1" departPos="0.00" departSpeed="max" arrivalLane="1" arrivalPos="max">
        <route edges="E4 E1"/>
    </vehicle>
    <vehicle id="car-flow-route-E4_1_0-E1_1_max--2352894271058968195--7266489842092764092--0-0.20" type="actor-car--4238973458400510012" depart="137.47" departLane="1" departPos="0.00" departSpeed="max" arrivalLane="1" arrivalPos="max">
        <route edges="E4 E1"/>
    </vehicle>
    <vehicle id="car-flow-route-E0_0_0--E4_0_max-3409258604394150170--7266489842092764092--2-0.13" type="actor-car--4238973458400510012" depart="137.91" departLane="0" departPos="0.00" departSpeed="max" arrivalLane="0" arrivalPos="max">
        <route edges="E0 -E4"/>
    </vehicle>
    <vehicle id="car-flow-route-E0_0_0-E1_1_max-6371496855813406146--7266489842092764092--1-0.16" type="actor-car--4238973458400510012" depart="138.39" departLane="0" departPos="0.00" departSpeed="max" arrivalLane="1" arrivalPos="max">
        <route edges="E0 E1"/>
    </vehicle>
    <vehicle id="car-flow-route-E4_1_0-E1_1_max--2352894271058968195--7266489842092764092--0-0.21" type="actor-car--4238973458400510012" depart="144.21" departLane="1" departPos="0.00" departSpeed="max" arrivalLane="1" arrivalPos="max">
        <route edges="E4 E1"/>
    </vehicle>
    <vehicle id="car-flow-route-E0_0_0-E1_1_max-6371496855813406146--7266489842092764092--1-0.17" type="actor-car--4238973458400510012" depart="146.92" departLane="0" departPos="0.00" departSpeed="max" arrivalLane="1" arrivalPos="max">
        <route edges="E0 E1"/>
    </vehicle>
    <vehicle id="car-flow-route-E0_0_0--E4_0_max-3409258604394150170--7266489842092764092--2-0.14" type="actor-car--4238973458400510012" depart="148.31" departLane="0" departPos="0.00" departSpeed="max" arrivalLane="0" arrivalPos="max">
        <route edges="E0 -E4"/>
    </vehicle>
    <vehicle id="car-flow-route-E4_1_0-E1_1_max--2352894271058968195--7266489842092764092--0-0.22" type="actor-car--4238973458400510012" depart="150.95" departLane="1" departPos="0.00" departSpeed="max" arrivalLane="1" arrivalPos="max">
        <route edges="E4 E1"/>
    </vehicle>
    <vehicle id="car-flow-route-E0_0_0-E1_1_max-6371496855813406146--7266489842092764092--1-0.18" type="actor-car--4238973458400510012" depart="155.46" departLane="0" departPos="0.00" departSpeed="max" arrivalLane="1" arrivalPos="max">
        <route edges="E0 E1"/>
    </vehicle>
    <vehicle id="car-flow-route-E4_1_0-E1_1_max--2352894271058968195--7266489842092764092--0-0.23" type="actor-car--4238973458400510012" depart="157.70" departLane="1" departPos="0.00" departSpeed="max" arrivalLane="1" arrivalPos="max">
        <route edges="E4 E1"/>
    </vehicle>
    <vehicle id="car-flow-route-E0_0_0--E4_0_max-3409258604394150170--7266489842092764092--2-0.15" type="actor-car--4238973458400510012" depart="158.70" departLane="0" departPos="0.00" departSpeed="max" arrivalLane="0" arrivalPos="max">
        <route edges="E0 -E4"/>
    </vehicle>
    <vehicle id="car-flow-route-E0_0_0-E1_1_max-6371496855813406146--7266489842092764092--1-0.19" type="actor-car--4238973458400510012" depart="163.99" departLane="0" departPos="0.00" departSpeed="max" arrivalLane="1" arrivalPos="max">
        <route edges="E0 E1"/>
    </vehicle>
    <vehicle id="car-flow-route-E4_1_0-E1_1_max--2352894271058968195--7266489842092764092--0-0.24" type="actor-car--4238973458400510012" depart="164.44" departLane="1" departPos="0.00" departSpeed="max" arrivalLane="1" arrivalPos="max">
        <route edges="E4 E1"/>
    </vehicle>
    <vehicle id="car-flow-route-E0_0_0--E4_0_max-3409258604394150170--7266489842092764092--2-0.16" type="actor-car--4238973458400510012" depart="169.09" departLane="0" departPos="0.00" departSpeed="max" arrivalLane="0" arrivalPos="max">
        <route edges="E0 -E4"/>
    </vehicle>
    <vehicle id="car-flow-route-E4_1_0-E1_1_max--2352894271058968195--7266489842092764092--0-0.25" type="actor-car--4238973458400510012" depart="171.18" departLane="1" departPos="0.00" departSpeed="max" arrivalLane="1" arrivalPos="max">
        <route edges="E4 E1"/>
    </vehicle>
    <vehicle id="car-flow-route-E0_0_0-E1_1_max-6371496855813406146--7266489842092764092--1-0.20" type="actor-car--4238973458400510012" depart="172.52" departLane="0" departPos="0.00" departSpeed="max" arrivalLane="1" arrivalPos="max">
        <route edges="E0 E1"/>
    </vehicle>
    <vehicle id="car-flow-route-E4_1_0-E1_1_max--2352894271058968195--7266489842092764092--0-0.26" type="actor-car--4238973458400510012" depart="177.92" departLane="1" departPos="0.00" departSpeed="max" arrivalLane="1" arrivalPos="max">
        <route edges="E4 E1"/>
    </vehicle>
    <vehicle id="car-flow-route-E0_0_0--E4_0_max-3409258604394150170--7266489842092764092--2-0.17" type="actor-car--4238973458400510012" depart="179.49" departLane="0" departPos="0.00" departSpeed="max" arrivalLane="0" arrivalPos="max">
        <route edges="E0 -E4"/>
    </vehicle>
    <vehicle id="car-flow-route-E0_0_0-E1_1_max-6371496855813406146--7266489842092764092--1-0.21" type="actor-car--4238973458400510012" depart="181.06" departLane="0" departPos="0.00" departSpeed="max" arrivalLane="1" arrivalPos="max">
        <route edges="E0 E1"/>
    </vehicle>
    <vehicle id="car-flow-route-E4_1_0-E1_1_max--2352894271058968195--7266489842092764092--0-0.27" type="actor-car--4238973458400510012" depart="184.66" departLane="1" departPos="0.00" departSpeed="max" arrivalLane="1" arrivalPos="max">
        <route edges="E4 E1"/>
    </vehicle>
    <vehicle id="car-flow-route-E0_0_0-E1_1_max-6371496855813406146--7266489842092764092--1-0.22" type="actor-car--4238973458400510012" depart="189.59" departLane="0" departPos="0.00" departSpeed="max" arrivalLane="1" arrivalPos="max">
        <route edges="E0 E1"/>
    </vehicle>
    <vehicle id="car-flow-route-E0_0_0--E4_0_max-3409258604394150170--7266489842092764092--2-0.18" type="actor-car--4238973458400510012" depart="189.88" departLane="0" departPos="0.00" departSpeed="max" arrivalLane="0" arrivalPos="max">
        <route edges="E0 -E4"/>
    </vehicle>
    <vehicle id="car-flow-route-E4_1_0-E1_1_max--2352894271058968195--7266489842092764092--0-0.28" type="actor-car--4238973458400510012" depart="191.40" departLane="1" departPos="0.00" departSpeed="max" arrivalLane="1" arrivalPos="max">
        <route edges="E4 E1"/>
    </vehicle>
    <vehicle id="car-flow-route-E0_0_0-E1_1_max-6371496855813406146--7266489842092764092--1-0.23" type="actor-car--4238973458400510012" depart="198.12" departLane="0" departPos="0.00" departSpeed="max" arrivalLane="1" arrivalPos="max">
        <route edges="E0 E1"/>
    </vehicle>
    <vehicle id="car-flow-route-E4_1_0-E1_1_max--2352894271058968195--7266489842092764092--0-0.29" type="actor-car--4238973458400510012" depart="198.14" departLane="1" departPos="0.00" departSpeed="max" arrivalLane="1" arrivalPos="max">
        <route edges="E4 E1"/>
    </vehicle>
    <vehicle id="car-flow-route-E0_0_0--E4_0_max-3409258604394150170--7266489842092764092--2-0.19" type="actor-car--4238973458400510012" depart="200.28" departLane="0" departPos="0.00" departSpeed="max" arrivalLane="0" arrivalPos="max">
        <route edges="E0 -E4"/>
    </vehicle>
    <vehicle id="car-flow-route-E4_1_0-E1_1_max--2352894271058968195--7266489842092764092--0-0.30" type="actor-car--4238973458400510012" depart="204.88" departLane="1" departPos="0.00" departSpeed="max" arrivalLane="1" arrivalPos="max">
        <route edges="E4 E1"/>
    </vehicle>
    <vehicle id="car-flow-route-E0_0_0-E1_1_max-6371496855813406146--7266489842092764092--1-0.24" type="actor-car--4238973458400510012" depart="206.65" departLane="0" departPos="0.00" departSpeed="max" arrivalLane="1" arrivalPos="max">
        <route edges="E0 E1"/>
    </vehicle>
    <vehicle id="car-flow-route-E0_0_0--E4_0_max-3409258604394150170--7266489842092764092--2-0.20" type="actor-car--4238973458400510012" depart="210.67" departLane="0" departPos="0.00" departSpeed="max" arrivalLane="0" arrivalPos="max">
        <route edges="E0 -E4"/>
    </vehicle>
    <vehicle id="car-flow-route-E4_1_0-E1_1_max--2352894271058968195--7266489842092764092--0-0.31" type="actor-car--4238973458400510012" depart="211.62" departLane="1" departPos="0.00" departSpeed="max" arrivalLane="1" arrivalPos="max">
        <route edges="E4 E1"/>
    </vehicle>
    <vehicle id="car-flow-route-E0_0_0-E1_1_max-6371496855813406146--7266489842092764092--1-0.25" type="actor-car--4238973458400510012" depart="215.19" departLane="0" departPos="0.00" departSpeed="max" arrivalLane="1" arrivalPos="max">
        <route edges="E0 E1"/>
    </vehicle>
    <vehicle id="car-flow-route-E4_1_0-E1_1_max--2352894271058968195--7266489842092764092--0-0.32" type="actor-car--4238973458400510012" depart="218.36" departLane="1" departPos="0.00" departSpeed="max" arrivalLane="1" arrivalPos="max">
        <route edges="E4 E1"/>
    </vehicle>
    <vehicle id="car-flow-route-E0_0_0--E4_0_max-3409258604394150170--7266489842092764092--2-0.21" type="actor-car--4238973458400510012" depart="221.06" departLane="0" departPos="0.00" departSpeed="max" arrivalLane="0" arrivalPos="max">
        <route edges="E0 -E4"/>
    </vehicle>
    <vehicle id="car-flow-route-E0_0_0-E1_1_max-6371496855813406146--7266489842092764092--1-0.26" type="actor-car--4238973458400510012" depart="223.72" departLane="0" departPos="0.00" departSpeed="max" arrivalLane="1" arrivalPos="max">
        <route edges="E0 E1"/>
    </vehicle>
    <vehicle id="car-flow-route-E4_1_0-E1_1_max--2352894271058968195--7266489842092764092--0-0.33" type="actor-car--4238973458400510012" depart="225.11" departLane="1" departPos="0.00" departSpeed="max" arrivalLane="1" arrivalPos="max">
        <route edges="E4 E1"/>
    </vehicle>
    <vehicle id="car-flow-route-E0_0_0--E4_0_max-3409258604394150170--7266489842092764092--2-0.22" type="actor-car--4238973458400510012" depart="231.46" departLane="0" departPos="0.00" departSpeed="max" arrivalLane="0" arrivalPos="max">
        <route edges="E0 -E4"/>
    </vehicle>
    <vehicle id="car-flow-route-E4_1_0-E1_1_max--2352894271058968195--7266489842092764092--0-0.34" type="actor-car--4238973458400510012" depart="231.85" departLane="1" departPos="0.00" departSpeed="max" arrivalLane="1" arrivalPos="max">
        <route edges="E4 E1"/>
    </vehicle>
    <vehicle id="car-flow-route-E0_0_0-E1_1_max-6371496855813406146--7266489842092764092--1-0.27" type="actor-car--4238973458400510012" depart="232.25" departLane="0" departPos="0.00" departSpeed="max" arrivalLane="1" arrivalPos="max">
        <route edges="E0 E1"/>
    </vehicle>
    <vehicle id="car-flow-route-E4_1_0-E1_1_max--2352894271058968195--7266489842092764092--0-0.35" type="actor-car--4238973458400510012" depart="238.59" departLane="1" departPos="0.00" departSpeed="max" arrivalLane="1" arrivalPos="max">
        <route edges="E4 E1"/>
    </vehicle>
    <vehicle id="car-flow-route-E0_0_0-E1_1_max-6371496855813406146--7266489842092764092--1-0.28" type="actor-car--4238973458400510012" depart="240.79" departLane="0" departPos="0.00" departSpeed="max" arrivalLane="1" arrivalPos="max">
        <route edges="E0 E1"/>
    </vehicle>
    <vehicle id="car-flow-route-E0_0_0--E4_0_max-3409258604394150170--7266489842092764092--2-0.23" type="actor-car--4238973458400510012" depart="241.85" departLane="0" departPos="0.00" departSpeed="max" arrivalLane="0" arrivalPos="max">
        <route edges="E0 -E4"/>
    </vehicle>
    <vehicle id="car-flow-route-E4_1_0-E1_1_max--2352894271058968195--7266489842092764092--0-0.36" type="actor-car--4238973458400510012" depart="245.33" departLane="1" departPos="0.00" departSpeed="max" arrivalLane="1" arrivalPos="max">
        <route edges="E4 E1"/>
    </vehicle>
    <vehicle id="car-flow-route-E0_0_0-E1_1_max-6371496855813406146--7266489842092764092--1-0.29" type="actor-car--4238973458400510012" depart="249.32" departLane="0" departPos="0.00" departSpeed="max" arrivalLane="1" arrivalPos="max">
        <route edges="E0 E1"/>
    </vehicle>
    <vehicle id="car-flow-route-E4_1_0-E1_1_max--2352894271058968195--7266489842092764092--0-0.37" type="actor-car--4238973458400510012" depart="252.07" departLane="1" departPos="0.00" departSpeed="max" arrivalLane="1" arrivalPos="max">
        <route edges="E4 E1"/>
    </vehicle>
    <vehicle id="car-flow-route-E0_0_0--E4_0_max-3409258604394150170--7266489842092764092--2-0.24" type="actor-car--4238973458400510012" depart="252.25" departLane="0" departPos="0.00" departSpeed="max" arrivalLane="0" arrivalPos="max">
        <route edges="E0 -E4"/>
    </vehicle>
    <vehicle id="car-flow-route-E0_0_0-E1_1_max-6371496855813406146--7266489842092764092--1-0.30" type="actor-car--4238973458400510012" depart="257.85" departLane="0" departPos="0.00" departSpeed="max" arrivalLane="1" arrivalPos="max">
        <route edges="E0 E1"/>
    </vehicle>
    <vehicle id="car-flow-route-E4_1_0-E1_1_max--2352894271058968195--7266489842092764092--0-0.38" type="actor-car--4238973458400510012" depart="258.81" departLane="1" departPos="0.00" departSpeed="max" arrivalLane="1" arrivalPos="max">
        <route edges="E4 E1"/>
    </vehicle>
    <vehicle id="car-flow-route-E0_0_0--E4_0_max-3409258604394150170--7266489842092764092--2-0.25" type="actor-car--4238973458400510012" depart="262.64" departLane="0" departPos="0.00" departSpeed="max" arrivalLane="0" arrivalPos="max">
        <route edges="E0 -E4"/>
    </vehicle>
    <vehicle id="car-flow-route-E4_1_0-E1_1_max--2352894271058968195--7266489842092764092--0-0.39" type="actor-car--4238973458400510012" depart="265.55" departLane="1" departPos="0.00" departSpeed="max" arrivalLane="1" arrivalPos="max">
        <route edges="E4 E1"/>
    </vehicle>
    <vehicle id="car-flow-route-E0_0_0-E1_1_max-6371496855813406146--7266489842092764092--1-0.31" type="actor-car--4238973458400510012" depart="266.39" departLane="0" departPos="0.00" departSpeed="max" arrivalLane="1" arrivalPos="max">
        <route edges="E0 E1"/>
    </vehicle>
    <vehicle id="car-flow-route-E4_1_0-E1_1_max--2352894271058968195--7266489842092764092--0-0.40" type="actor-car--4238973458400510012" depart="272.29" departLane="1" departPos="0.00" departSpeed="max" arrivalLane="1" arrivalPos="max">
        <route edges="E4 E1"/>
    </vehicle>
    <vehicle id="car-flow-route-E0_0_0--E4_0_max-3409258604394150170--7266489842092764092--2-0.26" type="actor-car--4238973458400510012" depart="273.03" departLane="0" departPos="0.00" departSpeed="max" arrivalLane="0" arrivalPos="max">
        <route edges="E0 -E4"/>
    </vehicle>
    <vehicle id="car-flow-route-E0_0_0-E1_1_max-6371496855813406146--7266489842092764092--1-0.32" type="actor-car--4238973458400510012" depart="274.92" departLane="0" departPos="0.00" departSpeed="max" arrivalLane="1" arrivalPos="max">
        <route edges="E0 E1"/>
    </vehicle>